<configuration>
    <input>
       <net-file value="network_sources\networks\israel_single_intersection.net.xml"/>
       <route-files value="network_sources\trips\israel_single_intersection.trip.xml"/>
    </input>
	<time-to-teleport value="-1"/>
</configuration>