<?xml version="1.0" encoding="UTF-8"?>

<!-- generated on 09/25/19 10:41:59 by Eclipse SUMO netedit Version 1.3.1
<configuration xmlns:xsi="http://www.w3.org/2001/XMLSchema-instance" xsi:noNamespaceSchemaLocation="http://sumo.dlr.de/xsd/netconvertConfiguration.xsd">

    <input>
        <sumo-net-file value="C:\Users\Pavel\Desktop\RL-on-SUMO\israel_double_intersection.net.xml"/>
    </input>

    <output>
        <output-file value="C:\Users\Pavel\Desktop\RL-on-SUMO\israel_double_intersection.net.xml"/>
    </output>

    <processing>
        <geometry.max-grade.fix value="false"/>
        <offset.disable-normalization value="true"/>
        <opposites.guess.fix-lengths value="true"/>
        <lefthand value="false"/>
    </processing>

    <junctions>
        <no-turnarounds value="true"/>
        <junctions.corner-detail value="5"/>
        <junctions.limit-turn-speed value="5.5"/>
        <rectangular-lane-cut value="false"/>
    </junctions>

    <pedestrian>
        <walkingareas value="false"/>
    </pedestrian>

</configuration>
-->

<net version="1.3" junctionCornerDetail="5" limitTurnSpeed="5.50" xmlns:xsi="http://www.w3.org/2001/XMLSchema-instance" xsi:noNamespaceSchemaLocation="http://sumo.dlr.de/xsd/net_file.xsd">

    <location netOffset="0.00,0.00" convBoundary="-200.00,-200.00,400.00,200.00" origBoundary="-10000000000.00,-10000000000.00,10000000000.00,10000000000.00" projParameter="!"/>

    <edge id=":gneJ0_0" function="internal">
        <lane id=":gneJ0_0_0" index="0" speed="6.51" length="9.03" shape="-11.20,16.80 -11.55,14.35 -12.60,12.60 -14.35,11.55 -16.80,11.20"/>
    </edge>
    <edge id=":gneJ0_1" function="internal">
        <lane id=":gneJ0_1_0" index="0" speed="8.00" length="14.19" shape="-8.00,16.80 -8.55,12.95 -10.20,10.20 -12.95,8.55 -16.80,8.00"/>
    </edge>
    <edge id=":gneJ0_2" function="internal">
        <lane id=":gneJ0_2_0" index="0" speed="13.89" length="33.60" shape="-8.00,16.80 -8.00,-16.80"/>
        <lane id=":gneJ0_2_1" index="1" speed="13.89" length="33.60" shape="-4.80,16.80 -4.80,-16.80"/>
    </edge>
    <edge id=":gneJ0_4" function="internal">
        <lane id=":gneJ0_4_0" index="0" speed="11.36" length="29.67" shape="-1.60,16.80 -0.45,8.75 3.00,3.00 8.75,-0.45 16.80,-1.60"/>
    </edge>
    <edge id=":gneJ0_5" function="internal">
        <lane id=":gneJ0_5_0" index="0" speed="3.65" length="4.67" shape="-1.60,16.80 -0.80,15.60 0.00,15.20 0.80,15.60 1.60,16.80"/>
    </edge>
    <edge id=":gneJ0_6" function="internal">
        <lane id=":gneJ0_6_0" index="0" speed="6.51" length="9.03" shape="16.80,11.20 14.35,11.55 12.60,12.60 11.55,14.35 11.20,16.80"/>
    </edge>
    <edge id=":gneJ0_7" function="internal">
        <lane id=":gneJ0_7_0" index="0" speed="8.00" length="14.19" shape="16.80,8.00 12.95,8.55 10.20,10.20 8.55,12.95 8.00,16.80"/>
    </edge>
    <edge id=":gneJ0_8" function="internal">
        <lane id=":gneJ0_8_0" index="0" speed="13.89" length="33.60" shape="16.80,8.00 -16.80,8.00"/>
        <lane id=":gneJ0_8_1" index="1" speed="13.89" length="33.60" shape="16.80,4.80 -16.80,4.80"/>
    </edge>
    <edge id=":gneJ0_10" function="internal">
        <lane id=":gneJ0_10_0" index="0" speed="11.36" length="29.67" shape="16.80,1.60 8.75,0.45 3.00,-3.00 -0.45,-8.75 -1.60,-16.80"/>
    </edge>
    <edge id=":gneJ0_11" function="internal">
        <lane id=":gneJ0_11_0" index="0" speed="6.51" length="9.03" shape="11.20,-16.80 11.55,-14.35 12.60,-12.60 14.35,-11.55 16.80,-11.20"/>
    </edge>
    <edge id=":gneJ0_12" function="internal">
        <lane id=":gneJ0_12_0" index="0" speed="8.00" length="14.19" shape="8.00,-16.80 8.55,-12.95 10.20,-10.20 12.95,-8.55 16.80,-8.00"/>
    </edge>
    <edge id=":gneJ0_13" function="internal">
        <lane id=":gneJ0_13_0" index="0" speed="13.89" length="33.60" shape="8.00,-16.80 8.00,16.80"/>
        <lane id=":gneJ0_13_1" index="1" speed="13.89" length="33.60" shape="4.80,-16.80 4.80,16.80"/>
    </edge>
    <edge id=":gneJ0_15" function="internal">
        <lane id=":gneJ0_15_0" index="0" speed="11.36" length="29.67" shape="1.60,-16.80 0.45,-8.75 -3.00,-3.00 -8.75,0.45 -16.80,1.60"/>
    </edge>
    <edge id=":gneJ0_16" function="internal">
        <lane id=":gneJ0_16_0" index="0" speed="3.65" length="4.67" shape="1.60,-16.80 0.80,-15.60 0.00,-15.20 -0.80,-15.60 -1.60,-16.80"/>
    </edge>
    <edge id=":gneJ0_17" function="internal">
        <lane id=":gneJ0_17_0" index="0" speed="6.51" length="9.03" shape="-16.80,-11.20 -14.35,-11.55 -12.60,-12.60 -11.55,-14.35 -11.20,-16.80"/>
    </edge>
    <edge id=":gneJ0_18" function="internal">
        <lane id=":gneJ0_18_0" index="0" speed="8.00" length="14.19" shape="-16.80,-8.00 -12.95,-8.55 -10.20,-10.20 -8.55,-12.95 -8.00,-16.80"/>
    </edge>
    <edge id=":gneJ0_19" function="internal">
        <lane id=":gneJ0_19_0" index="0" speed="13.89" length="33.60" shape="-16.80,-8.00 16.80,-8.00"/>
        <lane id=":gneJ0_19_1" index="1" speed="13.89" length="33.60" shape="-16.80,-4.80 16.80,-4.80"/>
    </edge>
    <edge id=":gneJ0_21" function="internal">
        <lane id=":gneJ0_21_0" index="0" speed="11.36" length="29.67" shape="-16.80,-1.60 -8.75,-0.45 -3.00,3.00 0.45,8.75 1.60,16.80"/>
    </edge>
    <edge id=":gneJ0_22" function="internal">
        <lane id=":gneJ0_22_0" index="0" speed="3.65" length="4.67" shape="-16.80,-1.60 -15.60,-0.80 -15.20,0.00 -15.60,0.80 -16.80,1.60"/>
    </edge>
    <edge id=":gneJ6_0" function="internal">
        <lane id=":gneJ6_0_0" index="0" speed="6.51" length="9.03" shape="192.00,16.80 191.65,14.35 190.60,12.60 188.85,11.55 186.40,11.20"/>
    </edge>
    <edge id=":gneJ6_1" function="internal">
        <lane id=":gneJ6_1_0" index="0" speed="13.89" length="33.60" shape="195.20,16.80 195.20,-16.80"/>
    </edge>
    <edge id=":gneJ6_2" function="internal">
        <lane id=":gneJ6_2_0" index="0" speed="10.88" length="27.14" shape="198.40,16.80 199.35,8.75 202.20,3.00 206.95,-0.45 213.60,-1.60"/>
    </edge>
    <edge id=":gneJ6_3" function="internal">
        <lane id=":gneJ6_3_0" index="0" speed="3.65" length="4.67" shape="198.40,16.80 199.20,15.60 200.00,15.20 200.80,15.60 201.60,16.80"/>
    </edge>
    <edge id=":gneJ6_4" function="internal">
        <lane id=":gneJ6_4_0" index="0" speed="7.33" length="11.73" shape="213.60,8.00 211.15,8.55 209.40,10.20 208.35,12.95 208.00,16.80"/>
    </edge>
    <edge id=":gneJ6_5" function="internal">
        <lane id=":gneJ6_5_0" index="0" speed="13.89" length="27.45" shape="213.60,4.80 205.50,5.30 200.00,6.40 194.50,7.50 186.40,8.00"/>
        <lane id=":gneJ6_5_1" index="1" speed="13.89" length="27.45" shape="213.60,1.60 205.50,2.10 200.00,3.20 194.50,4.30 186.40,4.80"/>
    </edge>
    <edge id=":gneJ6_7" function="internal">
        <lane id=":gneJ6_7_0" index="0" speed="10.88" length="27.14" shape="213.60,1.60 206.95,0.45 202.20,-3.00 199.35,-8.75 198.40,-16.80"/>
    </edge>
    <edge id=":gneJ6_8" function="internal">
        <lane id=":gneJ6_8_0" index="0" speed="3.65" length="4.67" shape="213.60,1.60 212.40,0.80 212.00,0.00 212.40,-0.80 213.60,-1.60"/>
    </edge>
    <edge id=":gneJ6_9" function="internal">
        <lane id=":gneJ6_9_0" index="0" speed="7.33" length="11.73" shape="208.00,-16.80 208.35,-12.95 209.40,-10.20 211.15,-8.55 213.60,-8.00"/>
    </edge>
    <edge id=":gneJ6_10" function="internal">
        <lane id=":gneJ6_10_0" index="0" speed="13.89" length="33.60" shape="204.80,-16.80 204.80,16.80"/>
    </edge>
    <edge id=":gneJ6_11" function="internal">
        <lane id=":gneJ6_11_0" index="0" speed="10.88" length="27.14" shape="201.60,-16.80 200.65,-8.75 197.80,-3.00 193.05,0.45 186.40,1.60"/>
    </edge>
    <edge id=":gneJ6_12" function="internal">
        <lane id=":gneJ6_12_0" index="0" speed="3.65" length="4.67" shape="201.60,-16.80 200.80,-15.60 200.00,-15.20 199.20,-15.60 198.40,-16.80"/>
    </edge>
    <edge id=":gneJ6_13" function="internal">
        <lane id=":gneJ6_13_0" index="0" speed="6.51" length="9.03" shape="186.40,-11.20 188.85,-11.55 190.60,-12.60 191.65,-14.35 192.00,-16.80"/>
    </edge>
    <edge id=":gneJ6_14" function="internal">
        <lane id=":gneJ6_14_0" index="0" speed="13.89" length="27.45" shape="186.40,-8.00 194.50,-7.50 200.00,-6.40 205.50,-5.30 213.60,-4.80"/>
        <lane id=":gneJ6_14_1" index="1" speed="13.89" length="27.45" shape="186.40,-4.80 194.50,-4.30 200.00,-3.20 205.50,-2.10 213.60,-1.60"/>
    </edge>
    <edge id=":gneJ6_16" function="internal">
        <lane id=":gneJ6_16_0" index="0" speed="11.36" length="29.67" shape="186.40,-1.60 194.45,-0.45 200.20,3.00 203.65,8.75 204.80,16.80"/>
    </edge>

    <edge id="-gneE1" from="gneJ0" to="gneJ6" priority="-1" shape="0.00,0.00 100.00,0.00 200.00,0.00">
        <lane id="-gneE1_0" index="0" speed="13.89" length="169.60" shape="16.80,-11.20 100.00,-11.20 186.40,-11.20"/>
        <lane id="-gneE1_1" index="1" speed="13.89" length="169.60" shape="16.80,-8.00 100.00,-8.00 186.40,-8.00"/>
        <lane id="-gneE1_2" index="2" speed="13.89" length="169.60" shape="16.80,-4.80 100.00,-4.80 186.40,-4.80"/>
        <lane id="-gneE1_3" index="3" speed="13.89" length="169.60" shape="16.80,-1.60 100.00,-1.60 186.40,-1.60"/>
    </edge>
    <edge id="-gneE10" from="gneJ12" to="gneJ0" priority="-1" shape="0.00,-200.00 0.00,-100.00 0.00,0.00">
        <lane id="-gneE10_0" index="0" speed="13.89" length="183.20" shape="11.20,-200.00 11.20,-100.00 11.20,-16.80"/>
        <lane id="-gneE10_1" index="1" speed="13.89" length="183.20" shape="8.00,-200.00 8.00,-100.00 8.00,-16.80"/>
        <lane id="-gneE10_2" index="2" speed="13.89" length="183.20" shape="4.80,-200.00 4.80,-100.00 4.80,-16.80"/>
        <lane id="-gneE10_3" index="3" speed="13.89" length="183.20" shape="1.60,-200.00 1.60,-100.00 1.60,-16.80"/>
    </edge>
    <edge id="-gneE11" from="gneJ13" to="gneJ6" priority="-1" shape="200.00,-200.00 200.00,-100.00 200.00,0.00">
        <lane id="-gneE11_0" index="0" speed="13.89" length="183.20" shape="208.00,-200.00 208.00,-100.00 208.00,-16.80"/>
        <lane id="-gneE11_1" index="1" speed="13.89" length="183.20" shape="204.80,-200.00 204.80,-100.00 204.80,-16.80"/>
        <lane id="-gneE11_2" index="2" speed="13.89" length="183.20" shape="201.60,-200.00 201.60,-100.00 201.60,-16.80"/>
    </edge>
    <edge id="-gneE12" from="gneJ14" to="gneJ6" priority="-1" shape="400.00,0.00 300.00,0.00 200.00,0.00">
        <lane id="-gneE12_0" index="0" speed="13.89" length="186.40" shape="400.00,8.00 300.00,8.00 213.60,8.00"/>
        <lane id="-gneE12_1" index="1" speed="13.89" length="186.40" shape="400.00,4.80 300.00,4.80 213.60,4.80"/>
        <lane id="-gneE12_2" index="2" speed="13.89" length="186.40" shape="400.00,1.60 300.00,1.60 213.60,1.60"/>
    </edge>
    <edge id="-gneE13" from="gneJ15" to="gneJ6" priority="-1" shape="200.00,200.00 200.00,100.00 200.00,0.00">
        <lane id="-gneE13_0" index="0" speed="13.89" length="183.20" shape="192.00,200.00 192.00,100.00 192.00,16.80"/>
        <lane id="-gneE13_1" index="1" speed="13.89" length="183.20" shape="195.20,200.00 195.20,100.00 195.20,16.80"/>
        <lane id="-gneE13_2" index="2" speed="13.89" length="183.20" shape="198.40,200.00 198.40,100.00 198.40,16.80"/>
    </edge>
    <edge id="-gneE14" from="gneJ16" to="gneJ0" priority="-1" shape="0.00,200.00 0.00,100.00 0.00,0.00">
        <lane id="-gneE14_0" index="0" speed="13.89" length="183.20" shape="-11.20,200.00 -11.20,100.00 -11.20,16.80"/>
        <lane id="-gneE14_1" index="1" speed="13.89" length="183.20" shape="-8.00,200.00 -8.00,100.00 -8.00,16.80"/>
        <lane id="-gneE14_2" index="2" speed="13.89" length="183.20" shape="-4.80,200.00 -4.80,100.00 -4.80,16.80"/>
        <lane id="-gneE14_3" index="3" speed="13.89" length="183.20" shape="-1.60,200.00 -1.60,100.00 -1.60,16.80"/>
    </edge>
    <edge id="-gneE15" from="gneJ6" to="gneJ14" priority="-1" shape="200.00,0.00 300.00,0.00 400.00,0.00">
        <lane id="-gneE15_0" index="0" speed="13.89" length="186.40" shape="213.60,-8.00 300.00,-8.00 400.00,-8.00"/>
        <lane id="-gneE15_1" index="1" speed="13.89" length="186.40" shape="213.60,-4.80 300.00,-4.80 400.00,-4.80"/>
        <lane id="-gneE15_2" index="2" speed="13.89" length="186.40" shape="213.60,-1.60 300.00,-1.60 400.00,-1.60"/>
    </edge>
    <edge id="-gneE16" from="gneJ6" to="gneJ13" priority="-1" shape="200.00,0.00 200.00,-100.00 200.00,-200.00">
        <lane id="-gneE16_0" index="0" speed="13.89" length="183.20" shape="192.00,-16.80 192.00,-100.00 192.00,-200.00"/>
        <lane id="-gneE16_1" index="1" speed="13.89" length="183.20" shape="195.20,-16.80 195.20,-100.00 195.20,-200.00"/>
        <lane id="-gneE16_2" index="2" speed="13.89" length="183.20" shape="198.40,-16.80 198.40,-100.00 198.40,-200.00"/>
    </edge>
    <edge id="-gneE17" from="gneJ6" to="gneJ0" priority="-1" shape="200.00,0.00 100.00,0.00 0.00,0.00">
        <lane id="-gneE17_0" index="0" speed="13.89" length="169.60" shape="186.40,11.20 100.00,11.20 16.80,11.20"/>
        <lane id="-gneE17_1" index="1" speed="13.89" length="169.60" shape="186.40,8.00 100.00,8.00 16.80,8.00"/>
        <lane id="-gneE17_2" index="2" speed="13.89" length="169.60" shape="186.40,4.80 100.00,4.80 16.80,4.80"/>
        <lane id="-gneE17_3" index="3" speed="13.89" length="169.60" shape="186.40,1.60 100.00,1.60 16.80,1.60"/>
    </edge>
    <edge id="-gneE18" from="gneJ6" to="gneJ15" priority="-1" shape="200.00,0.00 200.00,100.00 200.00,200.00">
        <lane id="-gneE18_0" index="0" speed="13.89" length="183.20" shape="208.00,16.80 208.00,100.00 208.00,200.00"/>
        <lane id="-gneE18_1" index="1" speed="13.89" length="183.20" shape="204.80,16.80 204.80,100.00 204.80,200.00"/>
        <lane id="-gneE18_2" index="2" speed="13.89" length="183.20" shape="201.60,16.80 201.60,100.00 201.60,200.00"/>
    </edge>
    <edge id="-gneE9" from="gneJ11" to="gneJ0" priority="-1" shape="-200.00,0.00 -100.00,0.00 0.00,0.00">
        <lane id="-gneE9_0" index="0" speed="13.89" length="183.20" shape="-200.00,-11.20 -100.00,-11.20 -16.80,-11.20"/>
        <lane id="-gneE9_1" index="1" speed="13.89" length="183.20" shape="-200.00,-8.00 -100.00,-8.00 -16.80,-8.00"/>
        <lane id="-gneE9_2" index="2" speed="13.89" length="183.20" shape="-200.00,-4.80 -100.00,-4.80 -16.80,-4.80"/>
        <lane id="-gneE9_3" index="3" speed="13.89" length="183.20" shape="-200.00,-1.60 -100.00,-1.60 -16.80,-1.60"/>
    </edge>
    <edge id="gneE0" from="gneJ0" to="gneJ11" priority="-1" shape="0.00,0.00 -100.00,0.00 -200.00,0.00">
        <lane id="gneE0_0" index="0" speed="13.89" length="183.20" shape="-16.80,11.20 -100.00,11.20 -200.00,11.20"/>
        <lane id="gneE0_1" index="1" speed="13.89" length="183.20" shape="-16.80,8.00 -100.00,8.00 -200.00,8.00"/>
        <lane id="gneE0_2" index="2" speed="13.89" length="183.20" shape="-16.80,4.80 -100.00,4.80 -200.00,4.80"/>
        <lane id="gneE0_3" index="3" speed="13.89" length="183.20" shape="-16.80,1.60 -100.00,1.60 -200.00,1.60"/>
    </edge>
    <edge id="gneE5" from="gneJ0" to="gneJ16" priority="-1" shape="0.00,0.00 0.00,100.00 0.00,200.00">
        <lane id="gneE5_0" index="0" speed="13.89" length="183.20" shape="11.20,16.80 11.20,100.00 11.20,200.00"/>
        <lane id="gneE5_1" index="1" speed="13.89" length="183.20" shape="8.00,16.80 8.00,100.00 8.00,200.00"/>
        <lane id="gneE5_2" index="2" speed="13.89" length="183.20" shape="4.80,16.80 4.80,100.00 4.80,200.00"/>
        <lane id="gneE5_3" index="3" speed="13.89" length="183.20" shape="1.60,16.80 1.60,100.00 1.60,200.00"/>
    </edge>
    <edge id="gneE6" from="gneJ0" to="gneJ12" priority="-1" shape="0.00,0.00 0.00,-100.00 0.00,-200.00">
        <lane id="gneE6_0" index="0" speed="13.89" length="183.20" shape="-11.20,-16.80 -11.20,-100.00 -11.20,-200.00"/>
        <lane id="gneE6_1" index="1" speed="13.89" length="183.20" shape="-8.00,-16.80 -8.00,-100.00 -8.00,-200.00"/>
        <lane id="gneE6_2" index="2" speed="13.89" length="183.20" shape="-4.80,-16.80 -4.80,-100.00 -4.80,-200.00"/>
        <lane id="gneE6_3" index="3" speed="13.89" length="183.20" shape="-1.60,-16.80 -1.60,-100.00 -1.60,-200.00"/>
    </edge>

    <tlLogic id="gneJ0" type="static" programID="0" offset="0">
        <phase duration="10" state="GGGGrrGrrrrrGGGGrrGrrrrr"/>
        <phase duration="10" state="GrrrGGGrrrrrGrrrGGGrrrrr"/>
        <phase duration="10" state="GrrrrrGGGGrrGrrrrrGGGGrr"/>
        <phase duration="10" state="GrrrrrGrrrGGGrrrrrGrrrGG"/>
    </tlLogic>
    <tlLogic id="gneJ6" type="static" programID="0" offset="0">
        <phase duration="33" state="GrrrGGGrrGrrrGGGr"/>
        <phase duration="6"  state="GrrrGrrGGGrrrGrrG"/>
        <phase duration="33" state="GGrrGrrrrGGrrGrrr"/>
        <phase duration="6"  state="GrGGGrrrrGrGGGrrr"/>
    </tlLogic>

    <junction id="gneJ0" type="traffic_light" x="0.00" y="0.00" incLanes="-gneE14_0 -gneE14_1 -gneE14_2 -gneE14_3 -gneE17_0 -gneE17_1 -gneE17_2 -gneE17_3 -gneE10_0 -gneE10_1 -gneE10_2 -gneE10_3 -gneE9_0 -gneE9_1 -gneE9_2 -gneE9_3" intLanes=":gneJ0_0_0 :gneJ0_1_0 :gneJ0_2_0 :gneJ0_2_1 :gneJ0_4_0 :gneJ0_5_0 :gneJ0_6_0 :gneJ0_7_0 :gneJ0_8_0 :gneJ0_8_1 :gneJ0_10_0 :gneJ0_11_0 :gneJ0_12_0 :gneJ0_13_0 :gneJ0_13_1 :gneJ0_15_0 :gneJ0_16_0 :gneJ0_17_0 :gneJ0_18_0 :gneJ0_19_0 :gneJ0_19_1 :gneJ0_21_0 :gneJ0_22_0" shape="-12.80,16.80 12.80,16.80 13.24,14.58 13.80,13.80 14.58,13.24 15.58,12.91 16.80,12.80 16.80,-12.80 14.58,-13.24 13.80,-13.80 13.24,-14.58 12.91,-15.58 12.80,-16.80 -12.80,-16.80 -13.24,-14.58 -13.80,-13.80 -14.58,-13.24 -15.58,-12.91 -16.80,-12.80 -16.80,12.80 -14.58,13.24 -13.80,13.80 -13.24,14.58 -12.91,15.58">
        <request index="0"  response="00000000000000000000000" foes="00000000000001100000000" cont="0"/>
        <request index="1"  response="00000000000000000000000" foes="00000000000001100000000" cont="0"/>
        <request index="2"  response="00000000000000000000000" foes="01111101000001100000000" cont="0"/>
        <request index="3"  response="00000000000000000000000" foes="01111101000001100000000" cont="0"/>
        <request index="4"  response="00000000110000000000000" foes="01000000110011100000000" cont="0"/>
        <request index="5"  response="00000000000000000000000" foes="01000000000000000000000" cont="0"/>
        <request index="6"  response="00000000000000000000000" foes="00000000110000000000000" cont="0"/>
        <request index="7"  response="00000000000000000000000" foes="00000000110000000000000" cont="0"/>
        <request index="8"  response="00000000000000000000000" foes="01000000110000000011111" cont="0"/>
        <request index="9"  response="00000000110000000011111" foes="01000000110000000011111" cont="0"/>
        <request index="10" response="00110001110000000010000" foes="00110011110000000010000" cont="0"/>
        <request index="11" response="00000000000000000000000" foes="00110000000000000000000" cont="0"/>
        <request index="12" response="00000000000000000000000" foes="00110000000000000000000" cont="0"/>
        <request index="13" response="00000000000000000000000" foes="00110000000011111010000" cont="0"/>
        <request index="14" response="00000000000000000000000" foes="00110000000011111010000" cont="0"/>
        <request index="15" response="00000000000000000001100" foes="11110000000010000001100" cont="0"/>
        <request index="16" response="00000000000010000000000" foes="00000000000010000000000" cont="0"/>
        <request index="17" response="00000000000000000001100" foes="00000000000000000001100" cont="0"/>
        <request index="18" response="00000000000000000000000" foes="00000000000000000001100" cont="0"/>
        <request index="19" response="00000000000000000000000" foes="00000001111110000001100" cont="0"/>
        <request index="20" response="00000001111100000001100" foes="00000001111110000001100" cont="0"/>
        <request index="21" response="00000001000001100011100" foes="00000001000001100111100" cont="0"/>
        <request index="22" response="00000000000000000000000" foes="00000001000000000000000" cont="0"/>
    </junction>
    <junction id="gneJ11" type="dead_end" x="-200.00" y="0.00" incLanes="gneE0_0 gneE0_1 gneE0_2 gneE0_3" intLanes="" shape="-200.00,0.00 -200.00,12.80 -200.00,0.00"/>
    <junction id="gneJ12" type="dead_end" x="0.00" y="-200.00" incLanes="gneE6_0 gneE6_1 gneE6_2 gneE6_3" intLanes="" shape="0.00,-200.00 -12.80,-200.00 0.00,-200.00"/>
    <junction id="gneJ13" type="dead_end" x="200.00" y="-200.00" incLanes="-gneE16_0 -gneE16_1 -gneE16_2" intLanes="" shape="200.00,-200.00 190.40,-200.00 200.00,-200.00"/>
    <junction id="gneJ14" type="dead_end" x="400.00" y="0.00" incLanes="-gneE15_0 -gneE15_1 -gneE15_2" intLanes="" shape="400.00,0.00 400.00,-9.60 400.00,0.00"/>
    <junction id="gneJ15" type="dead_end" x="200.00" y="200.00" incLanes="-gneE18_0 -gneE18_1 -gneE18_2" intLanes="" shape="200.00,200.00 209.60,200.00 200.00,200.00"/>
    <junction id="gneJ16" type="dead_end" x="0.00" y="200.00" incLanes="gneE5_0 gneE5_1 gneE5_2 gneE5_3" intLanes="" shape="0.00,200.00 12.80,200.00 0.00,200.00"/>
    <junction id="gneJ6" type="traffic_light" x="200.00" y="0.00" incLanes="-gneE13_0 -gneE13_1 -gneE13_2 -gneE12_0 -gneE12_1 -gneE12_2 -gneE11_0 -gneE11_1 -gneE11_2 -gneE1_0 -gneE1_1 -gneE1_2 -gneE1_3" intLanes=":gneJ6_0_0 :gneJ6_1_0 :gneJ6_2_0 :gneJ6_3_0 :gneJ6_4_0 :gneJ6_5_0 :gneJ6_5_1 :gneJ6_7_0 :gneJ6_8_0 :gneJ6_9_0 :gneJ6_10_0 :gneJ6_11_0 :gneJ6_12_0 :gneJ6_13_0 :gneJ6_14_0 :gneJ6_14_1 :gneJ6_16_0" shape="190.40,16.80 209.60,16.80 209.71,14.60 210.04,12.80 210.60,11.40 211.38,10.40 212.38,9.80 213.60,9.60 213.60,-9.60 211.38,-10.40 210.60,-11.40 210.04,-12.80 209.71,-14.60 209.60,-16.80 190.40,-16.80 189.96,-14.58 189.40,-13.80 188.62,-13.24 187.62,-12.91 186.40,-12.80 186.40,12.80 188.62,13.24 189.40,13.80 189.96,14.58 190.29,15.58">
        <request index="0"  response="00000000000000000" foes="00000000000000000" cont="0"/>
        <request index="1"  response="11100000001100000" foes="11100100001100000" cont="0"/>
        <request index="2"  response="11100010011100000" foes="11100010111100000" cont="0"/>
        <request index="3"  response="00000000000000000" foes="00000000000000000" cont="0"/>
        <request index="4"  response="00000000000000000" foes="00000000000000000" cont="0"/>
        <request index="5"  response="00000000000000000" foes="10000010000000110" cont="0"/>
        <request index="6"  response="00000000000000000" foes="10000010000000110" cont="0"/>
        <request index="7"  response="01100000000000000" foes="01101110000000100" cont="0"/>
        <request index="8"  response="00000000000000000" foes="01100000000000100" cont="0"/>
        <request index="9"  response="00000000000000000" foes="00000000000000000" cont="0"/>
        <request index="10" response="11100000011100000" foes="11100000011100100" cont="0"/>
        <request index="11" response="00000000000000000" foes="11100000010000010" cont="0"/>
        <request index="12" response="00000000000000000" foes="00000000010000000" cont="0"/>
        <request index="13" response="00000000000000000" foes="00000000000000000" cont="0"/>
        <request index="14" response="00000000000000000" foes="00000110110000110" cont="0"/>
        <request index="15" response="00000000000000000" foes="00000110110000110" cont="0"/>
        <request index="16" response="00000000000000000" foes="00000110001100110" cont="0"/>
    </junction>

    <connection from="-gneE1" to="-gneE16" fromLane="0" toLane="0" via=":gneJ6_13_0" tl="gneJ6" linkIndex="13" dir="r" state="O"/>
    <connection from="-gneE1" to="-gneE15" fromLane="1" toLane="1" pass="1" via=":gneJ6_14_0" tl="gneJ6" linkIndex="14" dir="s" state="O"/>
    <connection from="-gneE1" to="-gneE15" fromLane="2" toLane="2" via=":gneJ6_14_1" tl="gneJ6" linkIndex="15" dir="s" state="O"/>
    <connection from="-gneE1" to="-gneE18" fromLane="3" toLane="1" pass="1" via=":gneJ6_16_0" tl="gneJ6" linkIndex="16" dir="l" state="O"/>
    <connection from="-gneE10" to="-gneE1" fromLane="0" toLane="0" via=":gneJ0_11_0" tl="gneJ0" linkIndex="12" dir="r" state="O"/>
    <connection from="-gneE10" to="-gneE1" fromLane="1" toLane="1" pass="1" via=":gneJ0_12_0" tl="gneJ0" linkIndex="13" dir="r" state="O"/>
    <connection from="-gneE10" to="gneE5" fromLane="1" toLane="1" pass="1" via=":gneJ0_13_0" tl="gneJ0" linkIndex="14" dir="s" state="O"/>
    <connection from="-gneE10" to="gneE5" fromLane="2" toLane="2" via=":gneJ0_13_1" tl="gneJ0" linkIndex="15" dir="s" state="O"/>
    <connection from="-gneE10" to="gneE0" fromLane="3" toLane="3" via=":gneJ0_15_0" tl="gneJ0" linkIndex="16" dir="l" state="o"/>
    <connection from="-gneE10" to="gneE6" fromLane="3" toLane="3" via=":gneJ0_16_0" tl="gneJ0" linkIndex="17" dir="t" state="o"/>
    <connection from="-gneE11" to="-gneE15" fromLane="0" toLane="0" via=":gneJ6_9_0" tl="gneJ6" linkIndex="9" dir="r" state="O"/>
    <connection from="-gneE11" to="-gneE18" fromLane="1" toLane="1" via=":gneJ6_10_0" tl="gneJ6" linkIndex="10" dir="s" state="o"/>
    <connection from="-gneE11" to="-gneE17" fromLane="2" toLane="3" pass="1" via=":gneJ6_11_0" tl="gneJ6" linkIndex="11" dir="l" state="O"/>
    <connection from="-gneE11" to="-gneE16" fromLane="2" toLane="2" pass="1" via=":gneJ6_12_0" tl="gneJ6" linkIndex="12" dir="t" state="O"/>
    <connection from="-gneE12" to="-gneE18" fromLane="0" toLane="0" via=":gneJ6_4_0" tl="gneJ6" linkIndex="4" dir="r" state="O"/>
    <connection from="-gneE12" to="-gneE17" fromLane="1" toLane="1" via=":gneJ6_5_0" tl="gneJ6" linkIndex="5" dir="s" state="O"/>
    <connection from="-gneE12" to="-gneE17" fromLane="2" toLane="2" via=":gneJ6_5_1" tl="gneJ6" linkIndex="6" dir="s" state="O"/>
    <connection from="-gneE12" to="-gneE16" fromLane="2" toLane="2" via=":gneJ6_7_0" tl="gneJ6" linkIndex="7" dir="l" state="o"/>
    <connection from="-gneE12" to="-gneE15" fromLane="2" toLane="2" pass="1" via=":gneJ6_8_0" tl="gneJ6" linkIndex="8" dir="t" state="O"/>
    <connection from="-gneE13" to="-gneE17" fromLane="0" toLane="0" pass="1" via=":gneJ6_0_0" tl="gneJ6" linkIndex="0" dir="r" state="O"/>
    <connection from="-gneE13" to="-gneE16" fromLane="1" toLane="1" via=":gneJ6_1_0" tl="gneJ6" linkIndex="1" dir="s" state="o"/>
    <connection from="-gneE13" to="-gneE15" fromLane="2" toLane="2" via=":gneJ6_2_0" tl="gneJ6" linkIndex="2" dir="l" state="o"/>
    <connection from="-gneE13" to="-gneE18" fromLane="2" toLane="2" pass="1" via=":gneJ6_3_0" tl="gneJ6" linkIndex="3" dir="t" state="O"/>
    <connection from="-gneE14" to="gneE0" fromLane="0" toLane="0" via=":gneJ0_0_0" tl="gneJ0" linkIndex="0" dir="r" state="O"/>
    <connection from="-gneE14" to="gneE0" fromLane="1" toLane="1" pass="1" via=":gneJ0_1_0" tl="gneJ0" linkIndex="1" dir="r" state="O"/>
    <connection from="-gneE14" to="gneE6" fromLane="1" toLane="1" pass="1" via=":gneJ0_2_0" tl="gneJ0" linkIndex="2" dir="s" state="O"/>
    <connection from="-gneE14" to="gneE6" fromLane="2" toLane="2" via=":gneJ0_2_1" tl="gneJ0" linkIndex="3" dir="s" state="O"/>
    <connection from="-gneE14" to="-gneE1" fromLane="3" toLane="3" via=":gneJ0_4_0" tl="gneJ0" linkIndex="4" dir="l" state="o"/>
    <connection from="-gneE14" to="gneE5" fromLane="3" toLane="3" pass="1" via=":gneJ0_5_0" tl="gneJ0" linkIndex="5" dir="t" state="O"/>
    <connection from="-gneE17" to="gneE5" fromLane="0" toLane="0" pass="1" via=":gneJ0_6_0" tl="gneJ0" linkIndex="6" dir="r" state="O"/>
    <connection from="-gneE17" to="gneE5" fromLane="1" toLane="1" pass="1" via=":gneJ0_7_0" tl="gneJ0" linkIndex="7" dir="r" state="O"/>
    <connection from="-gneE17" to="gneE0" fromLane="1" toLane="1" pass="1" via=":gneJ0_8_0" tl="gneJ0" linkIndex="8" dir="s" state="O"/>
    <connection from="-gneE17" to="gneE0" fromLane="2" toLane="2" via=":gneJ0_8_1" tl="gneJ0" linkIndex="9" dir="s" state="o"/>
    <connection from="-gneE17" to="gneE6" fromLane="3" toLane="3" via=":gneJ0_10_0" tl="gneJ0" linkIndex="10" dir="l" state="o"/>
    <connection from="-gneE9" to="gneE6" fromLane="0" toLane="0" via=":gneJ0_17_0" tl="gneJ0" linkIndex="18" dir="r" state="o"/>
    <connection from="-gneE9" to="gneE6" fromLane="1" toLane="1" pass="1" via=":gneJ0_18_0" tl="gneJ0" linkIndex="19" dir="r" state="O"/>
    <connection from="-gneE9" to="-gneE1" fromLane="1" toLane="1" pass="1" via=":gneJ0_19_0" tl="gneJ0" linkIndex="20" dir="s" state="O"/>
    <connection from="-gneE9" to="-gneE1" fromLane="2" toLane="2" via=":gneJ0_19_1" tl="gneJ0" linkIndex="21" dir="s" state="o"/>
    <connection from="-gneE9" to="gneE5" fromLane="3" toLane="3" via=":gneJ0_21_0" tl="gneJ0" linkIndex="22" dir="l" state="o"/>
    <connection from="-gneE9" to="gneE0" fromLane="3" toLane="3" pass="1" via=":gneJ0_22_0" tl="gneJ0" linkIndex="23" dir="t" state="O"/>

    <connection from=":gneJ0_0" to="gneE0" fromLane="0" toLane="0" dir="r" state="M"/>
    <connection from=":gneJ0_1" to="gneE0" fromLane="0" toLane="1" dir="r" state="M"/>
    <connection from=":gneJ0_2" to="gneE6" fromLane="0" toLane="1" dir="s" state="M"/>
    <connection from=":gneJ0_2" to="gneE6" fromLane="1" toLane="2" dir="s" state="M"/>
    <connection from=":gneJ0_4" to="-gneE1" fromLane="0" toLane="3" dir="l" state="M"/>
    <connection from=":gneJ0_5" to="gneE5" fromLane="0" toLane="3" dir="t" state="M"/>
    <connection from=":gneJ0_6" to="gneE5" fromLane="0" toLane="0" dir="r" state="M"/>
    <connection from=":gneJ0_7" to="gneE5" fromLane="0" toLane="1" dir="r" state="M"/>
    <connection from=":gneJ0_8" to="gneE0" fromLane="0" toLane="1" dir="s" state="M"/>
    <connection from=":gneJ0_8" to="gneE0" fromLane="1" toLane="2" dir="s" state="M"/>
    <connection from=":gneJ0_10" to="gneE6" fromLane="0" toLane="3" dir="l" state="M"/>
    <connection from=":gneJ0_11" to="-gneE1" fromLane="0" toLane="0" dir="r" state="M"/>
    <connection from=":gneJ0_12" to="-gneE1" fromLane="0" toLane="1" dir="r" state="M"/>