<?xml version="1.0" encoding="UTF-8"?>

<!-- generated on 09/25/19 09:35:58 by Eclipse SUMO netedit Version 1.3.1
<configuration xmlns:xsi="http://www.w3.org/2001/XMLSchema-instance" xsi:noNamespaceSchemaLocation="http://sumo.dlr.de/xsd/netconvertConfiguration.xsd">

    <input>
        <sumo-net-file value="C:\Users\Pavel\Desktop\RL-on-SUMO\lower_city_intersection.net.xml"/>
    </input>

    <output>
        <output-file value="C:\Users\Pavel\Desktop\RL-on-SUMO\lower_city_intersection.net.xml"/>
    </output>

    <processing>
        <geometry.max-grade.fix value="false"/>
        <offset.disable-normalization value="true"/>
        <opposites.guess.fix-lengths value="true"/>
        <lefthand value="false"/>
    </processing>

    <junctions>
        <no-turnarounds value="true"/>
        <junctions.corner-detail value="5"/>
        <junctions.limit-turn-speed value="5.5"/>
        <rectangular-lane-cut value="false"/>
    </junctions>

    <pedestrian>
        <walkingareas value="false"/>
    </pedestrian>

</configuration>
-->

<net version="1.3" junctionCornerDetail="5" limitTurnSpeed="5.50" xmlns:xsi="http://www.w3.org/2001/XMLSchema-instance" xsi:noNamespaceSchemaLocation="http://sumo.dlr.de/xsd/net_file.xsd">

    <location netOffset="0.00,0.00" convBoundary="-200.00,-180.00,520.00,140.00" origBoundary="-10000000000.00,-10000000000.00,10000000000.00,10000000000.00" projParameter="!"/>

    <edge id=":gneJ15_0" function="internal">
        <lane id=":gneJ15_0_0" index="0" speed="13.89" length="1.03" shape="100.56,141.54 100.26,141.58 100.05,141.59 99.84,141.59 99.53,141.57"/>
    </edge>
    <edge id=":gneJ15_1" function="internal">
        <lane id=":gneJ15_1_0" index="0" speed="13.89" length="0.34" shape="99.78,138.38 99.88,138.39 99.95,138.39 100.02,138.38 100.12,138.37"/>
    </edge>
    <edge id=":gneJ19_0" function="internal">
        <lane id=":gneJ19_0_0" index="0" speed="13.89" length="0.10" shape="100.00,-88.40 100.00,-88.40"/>
    </edge>
    <edge id=":gneJ19_1" function="internal">
        <lane id=":gneJ19_1_0" index="0" speed="13.89" length="0.10" shape="100.00,-91.60 100.00,-91.60"/>
    </edge>
    <edge id=":gneJ2_0" function="internal">
        <lane id=":gneJ2_0_0" index="0" speed="6.51" length="9.03" shape="95.20,13.60 94.85,11.15 93.80,9.40 92.05,8.35 89.60,8.00"/>
    </edge>
    <edge id=":gneJ2_1" function="internal">
        <lane id=":gneJ2_1_0" index="0" speed="9.84" length="21.99" shape="98.40,13.60 99.15,6.95 101.40,2.20 105.15,-0.65 110.40,-1.60"/>
    </edge>
    <edge id=":gneJ2_2" function="internal">
        <lane id=":gneJ2_2_0" index="0" speed="9.84" length="21.99" shape="98.40,13.60 99.15,6.95 101.40,2.20 105.15,-0.65 110.40,-1.60"/>
    </edge>
    <edge id=":gneJ2_3" function="internal">
        <lane id=":gneJ2_3_0" index="0" speed="6.51" length="9.03" shape="110.40,8.00 107.95,8.35 106.20,9.40 105.15,11.15 104.80,13.60"/>
    </edge>
    <edge id=":gneJ2_4" function="internal">
        <lane id=":gneJ2_4_0" index="0" speed="8.00" length="14.19" shape="110.40,4.80 106.55,5.35 103.80,7.00 102.15,9.75 101.60,13.60"/>
    </edge>
    <edge id=":gneJ2_5" function="internal">
        <lane id=":gneJ2_5_0" index="0" speed="13.89" length="20.96" shape="110.40,1.60 104.19,2.10 100.00,3.20 95.81,4.30 89.60,4.80"/>
        <lane id=":gneJ2_5_1" index="1" speed="13.89" length="20.96" shape="110.40,1.60 89.60,1.60"/>
    </edge>
    <edge id=":gneJ2_7" function="internal">
        <lane id=":gneJ2_7_0" index="0" speed="3.24" length="1.60" shape="110.40,1.60 110.40,0.00"/>
    </edge>
    <edge id=":gneJ2_17" function="internal">
        <lane id=":gneJ2_17_0" index="0" speed="3.24" length="1.60" shape="110.40,0.00 110.40,-1.60"/>
    </edge>
    <edge id=":gneJ2_8" function="internal">
        <lane id=":gneJ2_8_0" index="0" speed="7.33" length="11.73" shape="101.60,-13.60 102.15,-11.15 103.80,-9.40 106.55,-8.35 110.40,-8.00"/>
    </edge>
    <edge id=":gneJ2_9" function="internal">
        <lane id=":gneJ2_9_0" index="0" speed="8.67" length="16.85" shape="101.60,-13.60 102.15,-8.35 103.80,-4.60 106.55,-2.35 110.40,-1.60"/>
    </edge>
    <edge id=":gneJ2_10" function="internal">
        <lane id=":gneJ2_10_0" index="0" speed="13.89" length="27.20" shape="101.60,-13.60 101.60,13.60"/>
    </edge>
    <edge id=":gneJ2_11" function="internal">
        <lane id=":gneJ2_11_0" index="0" speed="9.84" length="21.99" shape="101.60,-13.60 100.85,-6.95 98.60,-2.20 94.85,0.65 89.60,1.60"/>
    </edge>
    <edge id=":gneJ2_12" function="internal">
        <lane id=":gneJ2_12_0" index="0" speed="13.89" length="20.80" shape="89.60,-8.00 110.40,-8.00"/>
        <lane id=":gneJ2_12_1" index="1" speed="13.89" length="20.80" shape="89.60,-4.80 110.40,-4.80"/>
        <lane id=":gneJ2_12_2" index="2" speed="13.89" length="20.80" shape="89.60,-1.60 110.40,-1.60"/>
    </edge>
    <edge id=":gneJ2_15" function="internal">
        <lane id=":gneJ2_15_0" index="0" speed="13.89" length="20.80" shape="89.60,-1.60 110.40,-1.60"/>
    </edge>
    <edge id=":gneJ2_16" function="internal">
        <lane id=":gneJ2_16_0" index="0" speed="9.84" length="6.41" shape="89.60,-1.60 94.85,-0.65 95.71,0.00"/>
    </edge>
    <edge id=":gneJ2_18" function="internal">
        <lane id=":gneJ2_18_0" index="0" speed="9.84" length="15.58" shape="95.71,0.00 98.60,2.20 100.85,6.95 101.60,13.60"/>
    </edge>
    <edge id=":gneJ21_0" function="internal">
        <lane id=":gneJ21_0_0" index="0" speed="13.89" length="9.40" shape="4.70,8.00 -4.70,8.00"/>
        <lane id=":gneJ21_0_1" index="1" speed="13.89" length="9.40" shape="4.70,4.80 -4.70,4.80"/>
        <lane id=":gneJ21_0_2" index="2" speed="13.89" length="9.40" shape="4.70,1.60 -4.70,1.60"/>
    </edge>
    <edge id=":gneJ21_3" function="internal">
        <lane id=":gneJ21_3_0" index="0" speed="6.08" length="7.76" shape="4.70,1.60 1.94,1.41 -0.02,0.83 -1.21,-0.14 -1.60,-1.50"/>
    </edge>
    <edge id=":gneJ21_4" function="internal">
        <lane id=":gneJ21_4_0" index="0" speed="6.86" length="10.16" shape="1.60,-1.50 1.21,1.26 0.03,3.23 -1.94,4.41 -4.70,4.80"/>
    </edge>
    <edge id=":gneJ21_5" function="internal">
        <lane id=":gneJ21_5_0" index="0" speed="6.08" length="7.76" shape="1.60,-1.50 1.21,-0.14 0.03,0.82 -1.94,1.41 -4.70,1.60"/>
    </edge>
    <edge id=":gneJ22_0" function="internal">
        <lane id=":gneJ22_0_0" index="0" speed="6.51" length="9.03" shape="-1.60,-82.80 -1.95,-85.25 -3.00,-87.00 -4.75,-88.05 -7.20,-88.40"/>
    </edge>
    <edge id=":gneJ22_1" function="internal">
        <lane id=":gneJ22_1_0" index="0" speed="8.00" length="14.19" shape="-1.60,-82.80 -1.05,-86.65 0.60,-89.40 3.35,-91.05 7.20,-91.60"/>
    </edge>
    <edge id=":gneJ22_2" function="internal">
        <lane id=":gneJ22_2_0" index="0" speed="6.51" length="9.03" shape="7.20,-88.40 4.75,-88.05 3.00,-87.00 1.95,-85.25 1.60,-82.80"/>
    </edge>
    <edge id=":gneJ22_3" function="internal">
        <lane id=":gneJ22_3_0" index="0" speed="13.89" length="14.40" shape="7.20,-88.40 -7.20,-88.40"/>
    </edge>
    <edge id=":gneJ22_4" function="internal">
        <lane id=":gneJ22_4_0" index="0" speed="13.89" length="14.40" shape="-7.20,-91.60 7.20,-91.60"/>
    </edge>
    <edge id=":gneJ22_5" function="internal">
        <lane id=":gneJ22_5_0" index="0" speed="8.00" length="5.93" shape="-7.20,-91.60 -3.35,-91.05 -1.60,-90.00"/>
    </edge>
    <edge id=":gneJ22_6" function="internal">
        <lane id=":gneJ22_6_0" index="0" speed="8.00" length="8.26" shape="-1.60,-90.00 -0.60,-89.40 1.05,-86.65 1.60,-82.80"/>
    </edge>
    <edge id=":gneJ23_0" function="internal">
        <lane id=":gneJ23_0_0" index="0" speed="13.89" length="9.44" shape="-35.28,8.00 -44.72,8.00"/>
        <lane id=":gneJ23_0_1" index="1" speed="13.89" length="9.44" shape="-35.28,4.80 -44.72,4.80"/>
        <lane id=":gneJ23_0_2" index="2" speed="13.89" length="9.44" shape="-35.28,1.60 -44.72,1.60"/>
    </edge>
    <edge id=":gneJ23_3" function="internal">
        <lane id=":gneJ23_3_0" index="0" speed="5.97" length="8.08" shape="-35.28,1.60 -38.10,1.37 -40.06,0.69 -41.15,-0.44 -41.39,-2.02"/>
    </edge>
    <edge id=":gneJ23_4" function="internal">
        <lane id=":gneJ23_4_0" index="0" speed="7.16" length="10.22" shape="-38.20,-1.67 -38.88,1.16 -40.19,3.18 -42.14,4.40 -44.72,4.80"/>
    </edge>
    <edge id=":gneJ23_5" function="internal">
        <lane id=":gneJ23_5_0" index="0" speed="6.40" length="7.96" shape="-38.20,-1.67 -38.75,-0.24 -40.02,0.78 -42.01,1.40 -44.72,1.60"/>
    </edge>
    <edge id=":gneJ24_0" function="internal">
        <lane id=":gneJ24_0_0" index="0" speed="6.97" length="9.62" shape="-23.14,-88.40 -25.55,-88.02 -27.38,-86.87 -28.61,-84.97 -29.25,-82.29"/>
    </edge>
    <edge id=":gneJ24_1" function="internal">
        <lane id=":gneJ24_1_0" index="0" speed="13.89" length="14.44" shape="-23.14,-88.40 -37.58,-88.40"/>
    </edge>
    <edge id=":gneJ24_2" function="internal">
        <lane id=":gneJ24_2_0" index="0" speed="13.89" length="14.44" shape="-37.58,-91.60 -23.14,-91.60"/>
    </edge>
    <edge id=":gneJ24_3" function="internal">
        <lane id=":gneJ24_3_0" index="0" speed="7.82" length="5.97" shape="-37.58,-91.60 -33.54,-91.02 -31.95,-90.00"/>
    </edge>
    <edge id=":gneJ24_6" function="internal">
        <lane id=":gneJ24_6_0" index="0" speed="7.82" length="8.66" shape="-31.95,-90.00 -30.81,-89.27 -29.38,-86.37 -29.25,-82.29"/>
    </edge>
    <edge id=":gneJ24_4" function="internal">
        <lane id=":gneJ24_4_0" index="0" speed="6.28" length="9.04" shape="-32.43,-82.65 -32.51,-85.16 -33.39,-86.96 -35.08,-88.04 -37.58,-88.40"/>
    </edge>
    <edge id=":gneJ24_5" function="internal">
        <lane id=":gneJ24_5_0" index="0" speed="8.39" length="14.37" shape="-32.43,-82.65 -31.47,-86.56 -29.61,-89.36 -26.83,-91.04 -23.14,-91.60"/>
    </edge>
    <edge id=":gneJ25_0" function="internal">
        <lane id=":gneJ25_0_0" index="0" speed="13.89" length="0.10" shape="219.91,-88.40 220.00,-88.40"/>
    </edge>
    <edge id=":gneJ25_1" function="internal">
        <lane id=":gneJ25_1_0" index="0" speed="13.89" length="0.10" shape="220.00,-91.60 220.09,-91.60"/>
    </edge>
    <edge id=":gneJ27_0" function="internal">
        <lane id=":gneJ27_0_0" index="0" speed="13.89" length="14.40" shape="-102.80,8.00 -117.20,8.00"/>
        <lane id=":gneJ27_0_1" index="1" speed="13.89" length="14.40" shape="-102.80,4.80 -117.20,4.80"/>
        <lane id=":gneJ27_0_2" index="2" speed="13.89" length="14.40" shape="-102.80,1.60 -117.20,1.60"/>
    </edge>
    <edge id=":gneJ27_3" function="internal">
        <lane id=":gneJ27_3_0" index="0" speed="8.00" length="10.18" shape="-102.80,1.60 -106.65,1.05 -109.40,-0.60 -110.99,-3.25"/>
    </edge>
    <edge id=":gneJ27_7" function="internal">
        <lane id=":gneJ27_7_0" index="0" speed="8.00" length="4.01" shape="-110.99,-3.25 -111.05,-3.35 -111.60,-7.20"/>
    </edge>
    <edge id=":gneJ27_4" function="internal">
        <lane id=":gneJ27_4_0" index="0" speed="8.67" length="16.85" shape="-108.40,-7.20 -108.95,-1.95 -110.60,1.80 -113.35,4.05 -117.20,4.80"/>
    </edge>
    <edge id=":gneJ27_5" function="internal">
        <lane id=":gneJ27_5_0" index="0" speed="8.00" length="14.19" shape="-108.40,-7.20 -108.95,-3.35 -110.60,-0.60 -113.35,1.05 -117.20,1.60"/>
    </edge>
    <edge id=":gneJ27_6" function="internal">
        <lane id=":gneJ27_6_0" index="0" speed="6.51" length="9.03" shape="-117.20,-1.60 -114.75,-1.95 -113.00,-3.00 -111.95,-4.75 -111.60,-7.20"/>
    </edge>
    <edge id=":gneJ28_0" function="internal">
        <lane id=":gneJ28_0_0" index="0" speed="6.28" length="9.04" shape="-111.60,-82.42 -111.96,-84.92 -113.04,-86.61 -114.84,-87.49 -117.35,-87.57"/>
    </edge>
    <edge id=":gneJ28_1" function="internal">
        <lane id=":gneJ28_1_0" index="0" speed="13.89" length="15.31" shape="-111.60,-82.42 -111.55,-86.22 -111.38,-90.08 -111.12,-93.92 -110.75,-97.71"/>
    </edge>
    <edge id=":gneJ28_2" function="internal">
        <lane id=":gneJ28_2_0" index="0" speed="8.16" length="6.33" shape="-111.60,-82.42 -111.03,-86.44 -109.86,-88.39"/>
    </edge>
    <edge id=":gneJ28_12" function="internal">
        <lane id=":gneJ28_12_0" index="0" speed="8.16" length="8.47" shape="-109.86,-88.39 -109.31,-89.31 -106.44,-91.03 -102.42,-91.60"/>
    </edge>
    <edge id=":gneJ28_3" function="internal">
        <lane id=":gneJ28_3_0" index="0" speed="6.70" length="9.64" shape="-102.42,-88.40 -105.04,-88.03 -106.91,-86.91 -108.03,-85.04 -108.40,-82.42"/>
    </edge>
    <edge id=":gneJ28_4" function="internal">
        <lane id=":gneJ28_4_0" index="0" speed="13.89" length="14.96" shape="-102.42,-88.40 -106.17,-88.35 -109.90,-88.19 -113.63,-87.94 -117.35,-87.57"/>
    </edge>
    <edge id=":gneJ28_5" function="internal">
        <lane id=":gneJ28_5_0" index="0" speed="7.82" length="14.63" shape="-102.42,-88.40 -106.46,-88.98 -109.19,-90.73 -110.62,-93.63 -110.75,-97.71"/>
    </edge>
    <edge id=":gneJ28_6" function="internal">
        <lane id=":gneJ28_6_0" index="0" speed="6.28" length="9.04" shape="-107.57,-97.35 -107.49,-94.84 -106.61,-93.04 -104.92,-91.96 -102.42,-91.60"/>
    </edge>
    <edge id=":gneJ28_7" function="internal">
        <lane id=":gneJ28_7_0" index="0" speed="13.89" length="14.96" shape="-107.57,-97.35 -107.94,-93.63 -108.19,-89.90 -108.35,-86.17 -108.40,-82.42"/>
    </edge>
    <edge id=":gneJ28_8" function="internal">
        <lane id=":gneJ28_8_0" index="0" speed="8.99" length="6.04" shape="-107.57,-97.35 -108.55,-93.44 -109.66,-91.77"/>
    </edge>
    <edge id=":gneJ28_13" function="internal">
        <lane id=":gneJ28_13_0" index="0" speed="8.99" length="9.08" shape="-109.66,-91.77 -110.51,-90.51 -113.44,-88.55 -117.35,-87.57"/>
    </edge>
    <edge id=":gneJ28_9" function="internal">
        <lane id=":gneJ28_9_0" index="0" speed="7.66" length="10.75" shape="-117.71,-90.75 -114.92,-91.45 -112.84,-92.84 -111.45,-94.92 -110.75,-97.71"/>
    </edge>
    <edge id=":gneJ28_10" function="internal">
        <lane id=":gneJ28_10_0" index="0" speed="13.89" length="15.31" shape="-117.71,-90.75 -113.92,-91.12 -110.08,-91.38 -106.22,-91.55 -102.42,-91.60"/>
    </edge>
    <edge id=":gneJ28_11" function="internal">
        <lane id=":gneJ28_11_0" index="0" speed="7.82" length="14.63" shape="-117.71,-90.75 -113.63,-90.62 -110.73,-89.19 -108.98,-86.46 -108.40,-82.42"/>
    </edge>
    <edge id=":gneJ36_0" function="internal">
        <lane id=":gneJ36_0_0" index="0" speed="10.63" length="23.67" shape="263.01,-12.63 261.61,-3.60 259.68,2.84 257.23,6.71 254.27,8.00"/>
    </edge>
    <edge id=":gneJ36_1" function="internal">
        <lane id=":gneJ36_1_0" index="0" speed="10.01" length="20.89" shape="263.01,-12.63 261.74,-5.00 259.86,0.44 257.37,3.71 254.27,4.80"/>
    </edge>
    <edge id=":gneJ36_2" function="internal">
        <lane id=":gneJ36_2_0" index="0" speed="9.37" length="18.17" shape="263.01,-12.63 261.87,-6.40 260.04,-1.96 257.50,0.71 254.27,1.60"/>
    </edge>
    <edge id=":gneJ36_3" function="internal">
        <lane id=":gneJ36_3_0" index="0" speed="6.53" length="8.33" shape="254.27,-8.00 256.49,-8.31 258.16,-9.25 259.28,-10.80 259.83,-12.98"/>
    </edge>
    <edge id=":gneJ37_0" function="internal">
        <lane id=":gneJ37_0_0" index="0" speed="4.07" length="1.53" shape="272.22,-89.40 271.90,-89.18 271.66,-88.90 271.49,-88.57 271.41,-88.18"/>
    </edge>
    <edge id=":gneJ37_1" function="internal">
        <lane id=":gneJ37_1_0" index="0" speed="6.39" length="4.58" shape="268.23,-88.53 268.48,-89.69 268.97,-90.68 269.70,-91.52 270.67,-92.20"/>
    </edge>
    <edge id=":gneJ4_0" function="internal">
        <lane id=":gneJ4_0_0" index="0" speed="13.89" length="3.00" shape="398.50,-1.60 401.50,-1.60"/>
    </edge>
    <edge id=":gneJ40_0" function="internal">
        <lane id=":gneJ40_0_0" index="0" speed="13.89" length="20.80" shape="110.40,71.60 89.60,71.60"/>
    </edge>
    <edge id=":gneJ40_1" function="internal">
        <lane id=":gneJ40_1_0" index="0" speed="8.67" length="16.85" shape="110.40,71.60 105.15,71.05 101.40,69.40 99.15,66.65 98.40,62.80"/>
    </edge>
    <edge id=":gneJ40_2" function="internal">
        <lane id=":gneJ40_2_0" index="0" speed="8.67" length="16.85" shape="101.60,62.80 100.85,66.65 98.60,69.40 94.85,71.05 89.60,71.60"/>
    </edge>
    <edge id=":gneJ40_3" function="internal">
        <lane id=":gneJ40_3_0" index="0" speed="6.51" length="9.03" shape="89.60,68.40 92.05,68.05 93.80,67.00 94.85,65.25 95.20,62.80"/>
    </edge>
    <edge id=":gneJ40_4" function="internal">
        <lane id=":gneJ40_4_0" index="0" speed="7.33" length="11.73" shape="89.60,68.40 93.45,68.05 96.20,67.00 97.85,65.25 98.40,62.80"/>
    </edge>
    <edge id=":gneJ41_0" function="internal">
        <lane id=":gneJ41_0_0" index="0" speed="3.90" length="2.58" shape="221.60,70.00 221.50,70.70 221.20,71.20 220.70,71.50 220.00,71.60"/>
    </edge>
    <edge id=":gneJ43_0" function="internal">
        <lane id=":gneJ43_0_0" index="0" speed="13.89" length="0.10" shape="-31.60,70.00 -31.60,70.00"/>
    </edge>
    <edge id=":gneJ43_1" function="internal">
        <lane id=":gneJ43_1_0" index="0" speed="13.89" length="0.10" shape="-28.40,70.00 -28.40,70.00"/>
    </edge>
    <edge id=":gneJ44_0" function="internal">
        <lane id=":gneJ44_0_0" index="0" speed="6.51" length="9.03" shape="-31.60,47.20 -31.95,44.75 -33.00,43.00 -34.75,41.95 -37.20,41.60"/>
    </edge>
    <edge id=":gneJ44_1" function="internal">
        <lane id=":gneJ44_1_0" index="0" speed="8.00" length="14.19" shape="-31.60,47.20 -31.05,43.35 -29.40,40.60 -26.65,38.95 -22.80,38.40"/>
    </edge>
    <edge id=":gneJ44_2" function="internal">
        <lane id=":gneJ44_2_0" index="0" speed="6.51" length="9.03" shape="-22.80,41.60 -25.25,41.95 -27.00,43.00 -28.05,44.75 -28.40,47.20"/>
    </edge>
    <edge id=":gneJ44_3" function="internal">
        <lane id=":gneJ44_3_0" index="0" speed="13.89" length="14.40" shape="-22.80,41.60 -37.20,41.60"/>
    </edge>
    <edge id=":gneJ44_4" function="internal">
        <lane id=":gneJ44_4_0" index="0" speed="13.89" length="14.40" shape="-37.20,38.40 -22.80,38.40"/>
    </edge>
    <edge id=":gneJ44_5" function="internal">
        <lane id=":gneJ44_5_0" index="0" speed="8.00" length="5.93" shape="-37.20,38.40 -33.35,38.95 -31.60,40.00"/>
    </edge>
    <edge id=":gneJ44_6" function="internal">
        <lane id=":gneJ44_6_0" index="0" speed="8.00" length="8.26" shape="-31.60,40.00 -30.60,40.60 -28.95,43.35 -28.40,47.20"/>
    </edge>
    <edge id=":gneJ46_0" function="internal">
        <lane id=":gneJ46_0_0" index="0" speed="13.89" length="13.98" shape="-23.47,132.11 -27.05,131.75 -30.40,131.23 -33.73,130.52 -37.20,129.61"/>
    </edge>
    <edge id=":gneJ46_1" function="internal">
        <lane id=":gneJ46_1_0" index="0" speed="8.02" length="13.42" shape="-23.47,132.11 -27.03,131.32 -29.57,129.60 -31.09,126.94 -31.60,123.33"/>
    </edge>
    <edge id=":gneJ46_2" function="internal">
        <lane id=":gneJ46_2_0" index="0" speed="6.52" length="8.54" shape="-28.40,123.33 -28.08,125.63 -27.11,127.32 -25.49,128.42 -23.23,128.92"/>
    </edge>
    <edge id=":gneJ46_3" function="internal">
        <lane id=":gneJ46_3_0" index="0" speed="7.11" length="3.97" shape="-28.40,123.33 -28.95,127.02 -29.09,127.21"/>
    </edge>
    <edge id=":gneJ46_4" function="internal">
        <lane id=":gneJ46_4_0" index="0" speed="7.11" length="9.34" shape="-29.09,127.21 -30.60,129.30 -33.35,130.16 -37.20,129.61"/>
    </edge>
    <edge id=":gneJ47_0" function="internal">
        <lane id=":gneJ47_0_0" index="0" speed="7.06" length="6.50" shape="-100.77,111.44 -101.46,110.51 -102.06,108.66 -102.53,106.67 -102.81,105.35"/>
    </edge>
    <edge id=":gneJ49_0" function="internal">
        <lane id=":gneJ49_0_0" index="0" speed="3.93" length="2.14" shape="-110.95,72.81 -111.16,72.28 -111.49,71.90 -111.93,71.68 -112.50,71.60"/>
    </edge>
    <edge id=":gneJ49_1" function="internal">
        <lane id=":gneJ49_1_0" index="0" speed="6.14" length="6.43" shape="-112.50,68.40 -110.80,68.63 -109.46,69.31 -108.47,70.45 -107.84,72.04"/>
    </edge>
    <edge id=":gneJ51_0" function="internal">
        <lane id=":gneJ51_0_0" index="0" speed="6.08" length="7.74" shape="-136.80,71.60 -138.90,71.30 -140.40,70.40 -141.30,68.90 -141.60,66.80"/>
    </edge>
    <edge id=":gneJ51_1" function="internal">
        <lane id=":gneJ51_1_0" index="0" speed="3.90" length="2.58" shape="-138.40,66.80 -138.30,67.50 -138.00,68.00 -137.50,68.30 -136.80,68.40"/>
    </edge>
    <edge id=":gneJ55_0" function="internal">
        <lane id=":gneJ55_0_0" index="0" speed="13.89" length="14.40" shape="-141.60,47.20 -141.60,32.80"/>
    </edge>
    <edge id=":gneJ55_1" function="internal">
        <lane id=":gneJ55_1_0" index="0" speed="8.00" length="5.93" shape="-141.60,47.20 -141.05,43.35 -140.00,41.60"/>
    </edge>
    <edge id=":gneJ55_6" function="internal">
        <lane id=":gneJ55_6_0" index="0" speed="8.00" length="8.26" shape="-140.00,41.60 -139.40,40.60 -136.65,38.95 -132.80,38.40"/>
    </edge>
    <edge id=":gneJ55_2" function="internal">
        <lane id=":gneJ55_2_0" index="0" speed="6.51" length="9.03" shape="-132.80,41.60 -135.25,41.95 -137.00,43.00 -138.05,44.75 -138.40,47.20"/>
    </edge>
    <edge id=":gneJ55_3" function="internal">
        <lane id=":gneJ55_3_0" index="0" speed="8.00" length="14.19" shape="-132.80,41.60 -136.65,41.05 -139.40,39.40 -141.05,36.65 -141.60,32.80"/>
    </edge>
    <edge id=":gneJ55_4" function="internal">
        <lane id=":gneJ55_4_0" index="0" speed="6.51" length="9.03" shape="-138.40,32.80 -138.05,35.25 -137.00,37.00 -135.25,38.05 -132.80,38.40"/>
    </edge>
    <edge id=":gneJ55_5" function="internal">
        <lane id=":gneJ55_5_0" index="0" speed="13.89" length="14.40" shape="-138.40,32.80 -138.40,47.20"/>
    </edge>
    <edge id=":gneJ56_0" function="internal">
        <lane id=":gneJ56_0_0" index="0" speed="6.51" length="9.03" shape="-141.60,13.60 -141.95,11.15 -143.00,9.40 -144.75,8.35 -147.20,8.00"/>
    </edge>
    <edge id=":gneJ56_1" function="internal">
        <lane id=":gneJ56_1_0" index="0" speed="9.32" length="19.63" shape="-141.60,13.60 -141.05,6.95 -139.40,2.20 -136.65,-0.65 -132.80,-1.60"/>
    </edge>
    <edge id=":gneJ56_2" function="internal">
        <lane id=":gneJ56_2_0" index="0" speed="6.51" length="9.03" shape="-132.80,8.00 -135.25,8.35 -137.00,9.40 -138.05,11.15 -138.40,13.60"/>
    </edge>
    <edge id=":gneJ56_3" function="internal">
        <lane id=":gneJ56_3_0" index="0" speed="13.89" length="14.40" shape="-132.80,8.00 -147.20,8.00"/>
        <lane id=":gneJ56_3_1" index="1" speed="13.89" length="14.40" shape="-132.80,4.80 -147.20,4.80"/>
        <lane id=":gneJ56_3_2" index="2" speed="13.89" length="14.40" shape="-132.80,1.60 -147.20,1.60"/>
    </edge>
    <edge id=":gneJ61_0" function="internal">
        <lane id=":gneJ61_0_0" index="0" speed="6.18" length="5.95" shape="392.02,98.10 391.51,99.59 390.67,100.71 389.49,101.48 387.98,101.89"/>
    </edge>
    <edge id=":gneJ61_1" function="internal">
        <lane id=":gneJ61_1_0" index="0" speed="3.96" length="1.98" shape="387.54,98.72 388.04,98.59 388.44,98.33 388.72,97.96 388.89,97.46"/>
    </edge>
    <edge id=":gneJ63_0" function="internal">
        <lane id=":gneJ63_0_0" index="0" speed="6.51" length="9.03" shape="188.40,47.20 188.05,44.75 187.00,43.00 185.25,41.95 182.80,41.60"/>
    </edge>
    <edge id=":gneJ63_1" function="internal">
        <lane id=":gneJ63_1_0" index="0" speed="6.51" length="9.03" shape="197.20,41.60 194.75,41.95 193.00,43.00 191.95,44.75 191.60,47.20"/>
    </edge>
    <edge id=":gneJ63_2" function="internal">
        <lane id=":gneJ63_2_0" index="0" speed="13.89" length="14.40" shape="197.20,41.60 182.80,41.60"/>
    </edge>
    <edge id=":gneJ63_3" function="internal">
        <lane id=":gneJ63_3_0" index="0" speed="8.00" length="5.93" shape="182.80,38.40 186.65,38.95 188.40,40.00"/>
    </edge>
    <edge id=":gneJ63_4" function="internal">
        <lane id=":gneJ63_4_0" index="0" speed="8.00" length="8.26" shape="188.40,40.00 189.40,40.60 191.05,43.35 191.60,47.20"/>
    </edge>
    <edge id=":gneJ65_0" function="internal">
        <lane id=":gneJ65_0_0" index="0" speed="6.49" length="9.03" shape="227.21,41.65 224.76,41.98 223.00,43.02 221.95,44.77 221.60,47.22"/>
    </edge>
    <edge id=":gneJ65_1" function="internal">
        <lane id=":gneJ65_1_0" index="0" speed="13.89" length="11.21" shape="227.21,41.65 216.00,41.60"/>
    </edge>
    <edge id=":gneJ71_0" function="internal">
        <lane id=":gneJ71_0_0" index="0" speed="4.01" length="1.73" shape="441.43,40.72 441.18,41.09 440.87,41.36 440.49,41.53 440.05,41.60"/>
    </edge>
    <edge id=":gneJ75_0" function="internal">
        <lane id=":gneJ75_0_0" index="0" speed="7.52" length="10.20" shape="408.66,42.56 406.27,43.04 404.38,44.30 402.97,46.37 402.06,49.22"/>
    </edge>
    <edge id=":gneJ75_1" function="internal">
        <lane id=":gneJ75_1_0" index="0" speed="13.89" length="14.48" shape="408.66,42.56 394.17,42.71"/>
    </edge>
    <edge id=":gneJ75_2" function="internal">
        <lane id=":gneJ75_2_0" index="0" speed="6.12" length="9.06" shape="398.92,48.58 399.08,46.02 398.33,44.19 396.70,43.09 394.17,42.71"/>
    </edge>

    <edge id="gneE101" from="gneJ65" to="gneJ63" priority="-1">
        <lane id="gneE101_0" index="0" speed="13.89" length="18.80" shape="216.00,41.60 197.20,41.60"/>
    </edge>
    <edge id="gneE104" from="gneJ75" to="gneJ61" priority="-1">
        <lane id="gneE104_0" index="0" speed="13.89" length="49.91" shape="402.06,49.22 392.02,98.10"/>
    </edge>
    <edge id="gneE105" from="gneJ61" to="gneJ75" priority="-1">
        <lane id="gneE105_0" index="0" speed="13.89" length="49.91" shape="388.89,97.46 398.92,48.58"/>
    </edge>
    <edge id="gneE106" from="gneJ71" to="gneJ75" priority="-1">
        <lane id="gneE106_0" index="0" speed="13.89" length="31.41" shape="440.05,41.60 408.66,42.56"/>
    </edge>
    <edge id="gneE107" from="gneJ75" to="gneJ65" priority="-1">
        <lane id="gneE107_0" index="0" speed="13.89" length="166.96" shape="394.17,42.71 227.21,41.65"/>
    </edge>
    <edge id="gneE115" from="gneJ2" to="gneJ21" priority="-1">
        <lane id="gneE115_0" index="0" speed="13.89" length="84.90" shape="89.60,8.00 4.70,8.00"/>
        <lane id="gneE115_1" index="1" speed="13.89" length="84.90" shape="89.60,4.80 4.70,4.80"/>
        <lane id="gneE115_2" index="2" speed="13.89" length="84.90" shape="89.60,1.60 4.70,1.60"/>
    </edge>
    <edge id="gneE116" from="gneJ2" to="gneJ40" priority="-1">
        <lane id="gneE116_0" index="0" speed="13.89" length="49.20" shape="104.80,13.60 104.80,62.80"/>
        <lane id="gneE116_1" index="1" speed="13.89" length="49.20" shape="101.60,13.60 101.60,62.80"/>
    </edge>
    <edge id="gneE117" from="gneJ40" to="gneJ2" priority="-1">
        <lane id="gneE117_0" index="0" speed="13.89" length="49.20" shape="95.20,62.80 95.20,13.60"/>
        <lane id="gneE117_1" index="1" speed="13.89" length="49.20" shape="98.40,62.80 98.40,13.60"/>
    </edge>
    <edge id="gneE118" from="gneJ2" to="gneJ36" priority="-1" shape="100.00,0.00 220.00,0.00 260.00,0.00">
        <lane id="gneE118_0" index="0" speed="13.89" length="143.87" shape="110.40,-8.00 220.00,-8.00 254.27,-8.00"/>
        <lane id="gneE118_1" index="1" speed="13.89" length="143.87" shape="110.40,-4.80 220.00,-4.80 254.27,-4.80"/>
        <lane id="gneE118_2" index="2" speed="13.89" length="143.87" shape="110.40,-1.60 220.00,-1.60 254.27,-1.60"/>
    </edge>
    <edge id="gneE12" from="gneJ8" to="gneJ2" priority="-1">
        <lane id="gneE12_0" index="0" speed="13.89" length="289.60" shape="-200.00,-8.00 89.60,-8.00"/>
        <lane id="gneE12_1" index="1" speed="13.89" length="289.60" shape="-200.00,-4.80 89.60,-4.80"/>
        <lane id="gneE12_2" index="2" speed="13.89" length="289.60" shape="-200.00,-1.60 89.60,-1.60"/>
    </edge>
    <edge id="gneE120" from="gneJ56" to="gneJ27" priority="-1">
        <lane id="gneE120_0" index="0" speed="13.89" length="15.60" shape="-132.80,-1.60 -117.20,-1.60"/>
    </edge>
    <edge id="gneE121" from="gneJ21" to="gneJ23" priority="-1">
        <lane id="gneE121_0" index="0" speed="13.89" length="30.58" shape="-4.70,8.00 -35.28,8.00"/>
        <lane id="gneE121_1" index="1" speed="13.89" length="30.58" shape="-4.70,4.80 -35.28,4.80"/>
        <lane id="gneE121_2" index="2" speed="13.89" length="30.58" shape="-4.70,1.60 -35.28,1.60"/>
    </edge>
    <edge id="gneE122" from="gneJ23" to="gneJ27" priority="-1">
        <lane id="gneE122_0" index="0" speed="13.89" length="58.08" shape="-44.72,8.00 -102.80,8.00"/>
        <lane id="gneE122_1" index="1" speed="13.89" length="58.08" shape="-44.72,4.80 -102.80,4.80"/>
        <lane id="gneE122_2" index="2" speed="13.89" length="58.08" shape="-44.72,1.60 -102.80,1.60"/>
    </edge>
    <edge id="gneE123" from="gneJ27" to="gneJ56" priority="-1">
        <lane id="gneE123_0" index="0" speed="13.89" length="15.60" shape="-117.20,8.00 -132.80,8.00"/>
        <lane id="gneE123_1" index="1" speed="13.89" length="15.60" shape="-117.20,4.80 -132.80,4.80"/>
        <lane id="gneE123_2" index="2" speed="13.89" length="15.60" shape="-117.20,1.60 -132.80,1.60"/>
    </edge>
    <edge id="gneE124" from="gneJ56" to="gneJ8" priority="-1">
        <lane id="gneE124_0" index="0" speed="13.89" length="52.80" shape="-147.20,8.00 -200.00,8.00"/>
        <lane id="gneE124_1" index="1" speed="13.89" length="52.80" shape="-147.20,4.80 -200.00,4.80"/>
        <lane id="gneE124_2" index="2" speed="13.89" length="52.80" shape="-147.20,1.60 -200.00,1.60"/>
    </edge>
    <edge id="gneE127" from="gneJ36" to="gneJ2" priority="-1" shape="260.00,0.00 220.00,0.00 100.00,0.00">