<?xml version="1.0" encoding="UTF-8"?>

<!-- generated on 09/14/19 08:34:08 by Eclipse SUMO netedit Version 1.3.1
<configuration xmlns:xsi="http://www.w3.org/2001/XMLSchema-instance" xsi:noNamespaceSchemaLocation="http://sumo.dlr.de/xsd/netconvertConfiguration.xsd">

    <input>
        <sumo-net-file value="C:\Users\Pavel\Desktop\RL-on-SUMO\israel_single_intersection.net.xml"/>
    </input>

    <output>
        <output-file value="C:\Users\Pavel\Desktop\RL-on-SUMO\israel_single_intersection.net.xml"/>
    </output>

    <processing>
        <geometry.max-grade.fix value="false"/>
        <offset.disable-normalization value="true"/>
        <opposites.guess.fix-lengths value="true"/>
        <lefthand value="false"/>
    </processing>

    <junctions>
        <no-turnarounds value="true"/>
        <junctions.corner-detail value="0"/>
        <junctions.limit-turn-speed value="-1"/>
        <rectangular-lane-cut value="false"/>
    </junctions>

    <pedestrian>
        <walkingareas value="false"/>
    </pedestrian>

    <visualisation>
        <registry-viewport value="true"/>
    </visualisation>

</configuration>
-->

<net version="1.3" xmlns:xsi="http://www.w3.org/2001/XMLSchema-instance" xsi:noNamespaceSchemaLocation="http://sumo.dlr.de/xsd/net_file.xsd">

    <location netOffset="0.00,0.00" convBoundary="-100.00,-100.00,100.00,100.00" origBoundary="-10000000000.00,-10000000000.00,10000000000.00,10000000000.00" projParameter="!"/>

    <edge id=":gneJ00_0" function="internal">
        <lane id=":gneJ00_0_0" index="0" speed="13.89" length="9.03" shape="-11.20,16.80 -11.55,14.35 -12.60,12.60 -14.35,11.55 -16.80,11.20"/>
    </edge>
    <edge id=":gneJ00_1" function="internal">
        <lane id=":gneJ00_1_0" index="0" speed="13.89" length="14.19" shape="-8.00,16.80 -8.55,12.95 -10.20,10.20 -12.95,8.55 -16.80,8.00"/>
    </edge>
    <edge id=":gneJ00_2" function="internal">
        <lane id=":gneJ00_2_0" index="0" speed="13.89" length="33.67" shape="-8.00,16.80 -8.00,-16.80"/>
        <lane id=":gneJ00_2_1" index="1" speed="13.89" length="33.67" shape="-4.80,16.80 -4.80,-16.80"/>
        <lane id=":gneJ00_2_2" index="2" speed="13.89" length="33.67" shape="-4.80,16.80 -4.30,6.80 -3.20,0.00 -2.10,-6.80 -1.60,-16.80"/>
    </edge>
    <edge id=":gneJ00_5" function="internal">
        <lane id=":gneJ00_5_0" index="0" speed="13.89" length="29.67" shape="-1.60,16.80 -0.45,8.75 3.00,3.00 8.75,-0.45 16.80,-1.60"/>
    </edge>
    <edge id=":gneJ00_6" function="internal">
        <lane id=":gneJ00_6_0" index="0" speed="13.89" length="4.67" shape="-1.60,16.80 -0.80,15.60 0.00,15.20 0.80,15.60 1.60,16.80"/>
    </edge>
    <edge id=":gneJ00_7" function="internal">
        <lane id=":gneJ00_7_0" index="0" speed="13.89" length="9.03" shape="16.80,11.20 14.35,11.55 12.60,12.60 11.55,14.35 11.20,16.80"/>
    </edge>
    <edge id=":gneJ00_8" function="internal">
        <lane id=":gneJ00_8_0" index="0" speed="13.89" length="14.19" shape="16.80,8.00 12.95,8.55 10.20,10.20 8.55,12.95 8.00,16.80"/>
    </edge>
    <edge id=":gneJ00_9" function="internal">
        <lane id=":gneJ00_9_0" index="0" speed="13.89" length="33.67" shape="16.80,8.00 -16.80,8.00"/>
        <lane id=":gneJ00_9_1" index="1" speed="13.89" length="33.67" shape="16.80,4.80 -16.80,4.80"/>
        <lane id=":gneJ00_9_2" index="2" speed="13.89" length="33.67" shape="16.80,4.80 6.80,4.30 0.00,3.20 -6.80,2.10 -16.80,1.60"/>
    </edge>
    <edge id=":gneJ00_12" function="internal">
        <lane id=":gneJ00_12_0" index="0" speed="13.89" length="29.67" shape="16.80,1.60 8.75,0.45 3.00,-3.00 -0.45,-8.75 -1.60,-16.80"/>
    </edge>
    <edge id=":gneJ00_13" function="internal">
        <lane id=":gneJ00_13_0" index="0" speed="13.89" length="4.67" shape="16.80,1.60 15.60,0.80 15.20,0.00 15.60,-0.80 16.80,-1.60"/>
    </edge>
    <edge id=":gneJ00_14" function="internal">
        <lane id=":gneJ00_14_0" index="0" speed="13.89" length="9.03" shape="11.20,-16.80 11.55,-14.35 12.60,-12.60 14.35,-11.55 16.80,-11.20"/>
    </edge>
    <edge id=":gneJ00_15" function="internal">
        <lane id=":gneJ00_15_0" index="0" speed="13.89" length="14.19" shape="8.00,-16.80 8.55,-12.95 10.20,-10.20 12.95,-8.55 16.80,-8.00"/>
    </edge>
    <edge id=":gneJ00_16" function="internal">
        <lane id=":gneJ00_16_0" index="0" speed="13.89" length="33.67" shape="8.00,-16.80 8.00,16.80"/>
        <lane id=":gneJ00_16_1" index="1" speed="13.89" length="33.67" shape="4.80,-16.80 4.80,16.80"/>
        <lane id=":gneJ00_16_2" index="2" speed="13.89" length="33.67" shape="4.80,-16.80 4.30,-6.80 3.20,0.00 2.10,6.80 1.60,16.80"/>
    </edge>
    <edge id=":gneJ00_19" function="internal">
        <lane id=":gneJ00_19_0" index="0" speed="13.89" length="29.67" shape="1.60,-16.80 0.45,-8.75 -3.00,-3.00 -8.75,0.45 -16.80,1.60"/>
    </edge>
    <edge id=":gneJ00_20" function="internal">
        <lane id=":gneJ00_20_0" index="0" speed="13.89" length="4.67" shape="1.60,-16.80 0.80,-15.60 0.00,-15.20 -0.80,-15.60 -1.60,-16.80"/>
    </edge>
    <edge id=":gneJ00_21" function="internal">
        <lane id=":gneJ00_21_0" index="0" speed="13.89" length="9.03" shape="-16.80,-11.20 -14.35,-11.55 -12.60,-12.60 -11.55,-14.35 -11.20,-16.80"/>
    </edge>
    <edge id=":gneJ00_22" function="internal">
        <lane id=":gneJ00_22_0" index="0" speed="13.89" length="14.19" shape="-16.80,-8.00 -12.95,-8.55 -10.20,-10.20 -8.55,-12.95 -8.00,-16.80"/>
    </edge>
    <edge id=":gneJ00_23" function="internal">
        <lane id=":gneJ00_23_0" index="0" speed="13.89" length="33.67" shape="-16.80,-8.00 16.80,-8.00"/>
        <lane id=":gneJ00_23_1" index="1" speed="13.89" length="33.67" shape="-16.80,-4.80 16.80,-4.80"/>
        <lane id=":gneJ00_23_2" index="2" speed="13.89" length="33.67" shape="-16.80,-4.80 -6.80,-4.30 0.00,-3.20 6.80,-2.10 16.80,-1.60"/>
    </edge>
    <edge id=":gneJ00_26" function="internal">
        <lane id=":gneJ00_26_0" index="0" speed="13.89" length="29.67" shape="-16.80,-1.60 -8.75,-0.45 -3.00,3.00 0.45,8.75 1.60,16.80"/>
    </edge>
    <edge id=":gneJ00_27" function="internal">
        <lane id=":gneJ00_27_0" index="0" speed="13.89" length="4.67" shape="-16.80,-1.60 -15.60,-0.80 -15.20,0.00 -15.60,0.80 -16.80,1.60"/>
    </edge>

    <edge id="-gneE0" from="gneJ0" to="gneJ00" priority="1">
        <lane id="-gneE0_0" index="0" speed="13.89" length="83.20" shape="-11.20,100.00 -11.20,16.80"/>
        <lane id="-gneE0_1" index="1" speed="13.89" length="83.20" shape="-8.00,100.00 -8.00,16.80"/>
        <lane id="-gneE0_2" index="2" speed="13.89" length="83.20" shape="-4.80,100.00 -4.80,16.80"/>
        <lane id="-gneE0_3" index="3" speed="13.89" length="83.20" shape="-1.60,100.00 -1.60,16.80"/>
    </edge>
    <edge id="-gneE1" from="gneJ1" to="gneJ00" priority="1">
        <lane id="-gneE1_0" index="0" speed="13.89" length="83.20" shape="100.00,11.20 16.80,11.20"/>
        <lane id="-gneE1_1" index="1" speed="13.89" length="83.20" shape="100.00,8.00 16.80,8.00"/>
        <lane id="-gneE1_2" index="2" speed="13.89" length="83.20" shape="100.00,4.80 16.80,4.80"/>
        <lane id="-gneE1_3" index="3" speed="13.89" length="83.20" shape="100.00,1.60 16.80,1.60"/>
    </edge>
    <edge id="-gneE2" from="gneJ2" to="gneJ00" priority="1">
        <lane id="-gneE2_0" index="0" speed="13.89" length="83.20" shape="11.20,-100.00 11.20,-16.80"/>
        <lane id="-gneE2_1" index="1" speed="13.89" length="83.20" shape="8.00,-100.00 8.00,-16.80"/>
        <lane id="-gneE2_2" index="2" speed="13.89" length="83.20" shape="4.80,-100.00 4.80,-16.80"/>
        <lane id="-gneE2_3" index="3" speed="13.89" length="83.20" shape="1.60,-100.00 1.60,-16.80"/>
    </edge>
    <edge id="-gneE3" from="gneJ3" to="gneJ00" priority="1">
        <lane id="-gneE3_0" index="0" speed="13.89" length="83.20" shape="-100.00,-11.20 -16.80,-11.20"/>
        <lane id="-gneE3_1" index="1" speed="13.89" length="83.20" shape="-100.00,-8.00 -16.80,-8.00"/>
        <lane id="-gneE3_2" index="2" speed="13.89" length="83.20" shape="-100.00,-4.80 -16.80,-4.80"/>
        <lane id="-gneE3_3" index="3" speed="13.89" length="83.20" shape="-100.00,-1.60 -16.80,-1.60"/>
    </edge>
    <edge id="gneE0" from="gneJ00" to="gneJ0" priority="1">
        <lane id="gneE0_0" index="0" speed="13.89" length="83.20" shape="11.20,16.80 11.20,100.00"/>
        <lane id="gneE0_1" index="1" speed="13.89" length="83.20" shape="8.00,16.80 8.00,100.00"/>
        <lane id="gneE0_2" index="2" speed="13.89" length="83.20" shape="4.80,16.80 4.80,100.00"/>
        <lane id="gneE0_3" index="3" speed="13.89" length="83.20" shape="1.60,16.80 1.60,100.00"/>
    </edge>
    <edge id="gneE1" from="gneJ00" to="gneJ1" priority="1">
        <lane id="gneE1_0" index="0" speed="13.89" length="83.20" shape="16.80,-11.20 100.00,-11.20"/>
        <lane id="gneE1_1" index="1" speed="13.89" length="83.20" shape="16.80,-8.00 100.00,-8.00"/>
        <lane id="gneE1_2" index="2" speed="13.89" length="83.20" shape="16.80,-4.80 100.00,-4.80"/>
        <lane id="gneE1_3" index="3" speed="13.89" length="83.20" shape="16.80,-1.60 100.00,-1.60"/>
    </edge>
    <edge id="gneE2" from="gneJ00" to="gneJ2" priority="1">
        <lane id="gneE2_0" index="0" speed="13.89" length="83.20" shape="-11.20,-16.80 -11.20,-100.00"/>
        <lane id="gneE2_1" index="1" speed="13.89" length="83.20" shape="-8.00,-16.80 -8.00,-100.00"/>
        <lane id="gneE2_2" index="2" speed="13.89" length="83.20" shape="-4.80,-16.80 -4.80,-100.00"/>
        <lane id="gneE2_3" index="3" speed="13.89" length="83.20" shape="-1.60,-16.80 -1.60,-100.00"/>
    </edge>
    <edge id="gneE3" from="gneJ00" to="gneJ3" priority="1">
        <lane id="gneE3_0" index="0" speed="13.89" length="83.20" shape="-16.80,11.20 -100.00,11.20"/>
        <lane id="gneE3_1" index="1" speed="13.89" length="83.20" shape="-16.80,8.00 -100.00,8.00"/>
        <lane id="gneE3_2" index="2" speed="13.89" length="83.20" shape="-16.80,4.80 -100.00,4.80"/>
        <lane id="gneE3_3" index="3" speed="13.89" length="83.20" shape="-16.80,1.60 -100.00,1.60"/>
    </edge>

    <tlLogic id="gneJ00" type="static" programID="0" offset="0">
        <phase duration="10" state="GGGGGGrrGrrrrrrrGGGGGGrrGrrrrrrr"/>
        <phase duration="15" state="GGrrrrGGGGrrrrrrGGrrrrGGGGrrrrrr"/>
        <phase duration="10" state="GrrrrrrrGGGGGGrrGrrrrrrrGGGGGGrr"/>
        <phase duration="15" state="GGrrrrrrGGrrrrGGGGrrrrrrGGrrrrGG"/>
    </tlLogic>

    <junction id="gneJ0" type="dead_end" x="0.00" y="100.00" incLanes="gneE0_0 gneE0_1 gneE0_2 gneE0_3" intLanes="" shape="0.00,100.00 12.80,100.00 0.00,100.00"/>
    <junction id="gneJ00" type="traffic_light" x="0.00" y="0.00" incLanes="-gneE0_0 -gneE0_1 -gneE0_2 -gneE0_3 -gneE1_0 -gneE1_1 -gneE1_2 -gneE1_3 -gneE2_0 -gneE2_1 -gneE2_2 -gneE2_3 -gneE3_0 -gneE3_1 -gneE3_2 -gneE3_3" intLanes=":gneJ00_0_0 :gneJ00_1_0 :gneJ00_2_0 :gneJ00_2_1 :gneJ00_2_2 :gneJ00_5_0 :gneJ00_6_0 :gneJ00_7_0 :gneJ00_8_0 :gneJ00_9_0 :gneJ00_9_1 :gneJ00_9_2 :gneJ00_12_0 :gneJ00_13_0 :gneJ00_14_0 :gneJ00_15_0 :gneJ00_16_0 :gneJ00_16_1 :gneJ00_16_2 :gneJ00_19_0 :gneJ00_20_0 :gneJ00_21_0 :gneJ00_22_0 :gneJ00_23_0 :gneJ00_23_1 :gneJ00_23_2 :gneJ00_26_0 :gneJ00_27_0" shape="-12.80,16.80 12.80,16.80 16.80,12.80 16.80,-12.80 12.80,-16.80 -12.80,-16.80 -16.80,-12.80 -16.80,12.80">
        <request index="0"  response="0000000000000000000000000000" foes="0000000000000000111000000000" cont="0"/>
        <request index="1"  response="0000000000000000000000000000" foes="0000000000000000111000000000" cont="0"/>
        <request index="2"  response="0000000000000000000000000000" foes="0111111110000001111000000000" cont="0"/>
        <request index="3"  response="0000000000000000000000000000" foes="0111111110000001111000000000" cont="0"/>
        <request index="4"  response="0000000000000000000000000000" foes="0111111110000001111000000000" cont="0"/>
        <request index="5"  response="0000000001110000000000000000" foes="0111100001110011111000000000" cont="0"/>
        <request index="6"  response="0000000000000000000000000000" foes="0100000001110000000000000000" cont="0"/>
        <request index="7"  response="0000000000000000000000000000" foes="0000000001110000000000000000" cont="0"/>
        <request index="8"  response="0000000000000000000000000000" foes="0000000001110000000000000000" cont="0"/>
        <request index="9"  response="0000000000000000000000000000" foes="1100000011110000000000111111" cont="0"/>
        <request index="10" response="0000000000000000000000000000" foes="1100000011110000000000111111" cont="0"/>
        <request index="11" response="0000000000000000000000000000" foes="1100000011110000000000111111" cont="0"/>
        <request index="12" response="0011100011110000000000111100" foes="0011100111110000000000111100" cont="0"/>
        <request index="13" response="0000000000000000000000000000" foes="0011100000000000000000100000" cont="0"/>
        <request index="14" response="0000000000000000000000000000" foes="0011100000000000000000000000" cont="0"/>
        <request index="15" response="0000000000000000000000000000" foes="0011100000000000000000000000" cont="0"/>
        <request index="16" response="0000000000000000000000000000" foes="0111100000000001111111100000" cont="0"/>
        <request index="17" response="0000000000000000000000000000" foes="0111100000000001111111100000" cont="0"/>
        <request index="18" response="0000000000000000000000000000" foes="0111100000000001111111100000" cont="0"/>
        <request index="19" response="0000000000000000000000011100" foes="1111100000000001111000011100" cont="0"/>
        <request index="20" response="0000000000000000000000000000" foes="0000000000000001000000011100" cont="0"/>
        <request index="21" response="0000000000000000000000000000" foes="0000000000000000000000011100" cont="0"/>
        <request index="22" response="0000000000000000000000000000" foes="0000000000000000000000011100" cont="0"/>
        <request index="23" response="0000000000000000000000000000" foes="0000000011111111000000111100" cont="0"/>
        <request index="24" response="0000000000000000000000000000" foes="0000000011111111000000111100" cont="0"/>
        <request index="25" response="0000000000000000000000000000" foes="0000000011111111000000111100" cont="0"/>
        <request index="26" response="0000000011110000111000111100" foes="0000000011110000111001111100" cont="0"/>
        <request index="27" response="0000000000000000000000000000" foes="0000000010000000111000000000" cont="0"/>
    </junction>
    <junction id="gneJ1" type="dead_end" x="100.00" y="0.00" incLanes="gneE1_0 gneE1_1 gneE1_2 gneE1_3" intLanes="" shape="100.00,0.00 100.00,-12.80 100.00,0.00"/>
    <junction id="gneJ2" type="dead_end" x="0.00" y="-100.00" incLanes="gneE2_0 gneE2_1 gneE2_2 gneE2_3" intLanes="" shape="0.00,-100.00 -12.80,-100.00 0.00,-100.00"/>
    <junction id="gneJ3" type="dead_end" x="-100.00" y="0.00" incLanes="gneE3_0 gneE3_1 gneE3_2 gneE3_3" intLanes="" shape="-100.00,0.00 -100.00,12.80 -100.00,0.00"/>

    <connection from="-gneE0" to="gneE3" fromLane="0" toLane="0" pass="1" via=":gneJ00_0_0" tl="gneJ00" linkIndex="0" dir="r" state="O"/>
    <connection from="-gneE0" to="gneE3" fromLane="1" toLane="1" pass="1" via=":gneJ00_1_0" tl="gneJ00" linkIndex="1" dir="r" state="O"/>
    <connection from="-gneE0" to="gneE2" fromLane="1" toLane="1" pass="1" via=":gneJ00_2_0" tl="gneJ00" linkIndex="3" dir="s" state="O"/>
    <connection from="-gneE0" to="gneE2" fromLane="2" toLane="2" via=":gneJ00_2_1" tl="gneJ00" linkIndex="4" dir="s" state="O"/>
    <connection from="-gneE0" to="gneE2" fromLane="2" toLane="3" pass="1" via=":gneJ00_2_2" tl="gneJ00" linkIndex="5" dir="s" state="O"/>
    <connection from="-gneE0" to="gneE1" fromLane="3" toLane="3" via=":gneJ00_5_0" tl="gneJ00" linkIndex="6" dir="l" state="o"/>
    <connection from="-gneE0" to="gneE0" fromLane="3" toLane="3" pass="1" via=":gneJ00_6_0" tl="gneJ00" linkIndex="7" dir="t" state="O"/>
    <connection from="-gneE1" to="gneE0" fromLane="0" toLane="0" pass="1" via=":gneJ00_7_0" tl="gneJ00" linkIndex="8" dir="r" state="O"/>
    <connection from="-gneE1" to="gneE0" fromLane="1" toLane="1" pass="1" via=":gneJ00_8_0" tl="gneJ00" linkIndex="9" dir="r" state="O"/>
    <connection from="-gneE1" to="gneE3" fromLane="1" toLane="1" pass="1" via=":gneJ00_9_0" tl="gneJ00" linkIndex="11" dir="s" state="O"/>
    <connection from="-gneE1" to="gneE3" fromLane="2" toLane="2" pass="1" via=":gneJ00_9_1" tl="gneJ00" linkIndex="12" dir="s" state="O"/>
    <connection from="-gneE1" to="gneE3" fromLane="2" toLane="3" pass="1" via=":gneJ00_9_2" tl="gneJ00" linkIndex="13" dir="s" state="O"/>
    <connection from="-gneE1" to="gneE2" fromLane="3" toLane="3" via=":gneJ00_12_0" tl="gneJ00" linkIndex="14" dir="l" state="o"/>
    <connection from="-gneE1" to="gneE1" fromLane="3" toLane="3" pass="1" via=":gneJ00_13_0" tl="gneJ00" linkIndex="15" dir="t" state="O"/>
    <connection from="-gneE2" to="gneE1" fromLane="0" toLane="0" via=":gneJ00_14_0" tl="gneJ00" linkIndex="16" dir="r" state="O"/>
    <connection from="-gneE2" to="gneE1" fromLane="1" toLane="1" pass="1" via=":gneJ00_15_0" tl="gneJ00" linkIndex="17" dir="r" state="O"/>
    <connection from="-gneE2" to="gneE0" fromLane="1" toLane="1" pass="1" via=":gneJ00_16_0" tl="gneJ00" linkIndex="19" dir="s" state="O"/>
    <connection from="-gneE2" to="gneE0" fromLane="2" toLane="2" pass="1" via=":gneJ00_16_1" tl="gneJ00" linkIndex="20" dir="s" state="O"/>
    <connection from="-gneE2" to="gneE0" fromLane="2" toLane="3" pass="1" via=":gneJ00_16_2" tl="gneJ00" linkIndex="21" dir="s" state="O"/>
    <connection from="-gneE2" to="gneE3" fromLane="3" toLane="3" via=":gneJ00_19_0" tl="gneJ00" linkIndex="22" dir="l" state="o"/>
    <connection from="-gneE2" to="gneE2" fromLane="3" toLane="3" pass="1" via=":gneJ00_20_0" tl="gneJ00" linkIndex="23" dir="t" state="O"/>
    <connection from="-gneE3" to="gneE2" fromLane="0" toLane="0" pass="1" via=":gneJ00_21_0" tl="gneJ00" linkIndex="24" dir="r" state="O"/>
    <connection from="-gneE3" to="gneE2" fromLane="1" toLane="1" pass="1" via=":gneJ00_22_0" tl="gneJ00" linkIndex="25" dir="r" state="O"/>
    <connection from="-gneE3" to="gneE1" fromLane="1" toLane="1" pass="1" via=":gneJ00_23_0" tl="gneJ00" linkIndex="27" dir="s" state="O"/>
    <connection from="-gneE3" to="gneE1" fromLane="2" toLane="2" pass="1" via=":gneJ00_23_1" tl="gneJ00" linkIndex="28" dir="s" state="O"/>
    <connection from="-gneE3" to="gneE1" fromLane="2" toLane="3" pass="1" via=":gneJ00_23_2" tl="gneJ00" linkIndex="29" dir="s" state="O"/>
    <connection from="-gneE3" to="gneE0" fromLane="3" toLane="3" via=":gneJ00_26_0" tl="gneJ00" linkIndex="30" dir="l" state="o"/>
    <connection from="-gneE3" to="gneE3" fromLane="3" toLane="3" pass="1" via=":gneJ00_27_0" tl="gneJ00" linkIndex="31" dir="t" state="O"/>

    <connection from=":gneJ00_0" to="gneE3" fromLane="0" toLane="0" dir="r" state="M"/>
    <connection from=":gneJ00_1" to="gneE3" fromLane="0" toLane="1" dir="r" state="M"/>
    <connection from=":gneJ00_2" to="gneE2" fromLane="0" toLane="1" dir="s" state="M"/>
    <connection from=":gneJ00_2" to="gneE2" fromLane="1" toLane="2" dir="s" state="M"/>
    <connection from=":gneJ00_2" to="gneE2" fromLane="2" toLane="3" dir="s" state="M"/>
    <connection from=":gneJ00_5" to="gneE1" fromLane="0" toLane="3" dir="l" state="M"/>
    <connection from=":gneJ00_6" to="gneE0" fromLane="0" toLane="3" dir="t" state="M"/>
    <connection from=":gneJ00_7" to="gneE0" fromLane="0" toLane="0" dir="r" state="M"/>
    <connection from=":gneJ00_8" to="gneE0" fromLane="0" toLane="1" dir="r" state="M"/>
    <connection from=":gneJ00_9" to="gneE3" fromLane="0" toLane="1" dir="s" state="M"/>
    <connection from=":gneJ00_9" to="gneE3" fromLane="1" toLane="2" dir="s" state="M"/>
    <connection from=":gneJ00_9" to="gneE3" fromLane="2" toLane="3" dir="s" state="M"/>
    <connection from=":gneJ00_12" to="gneE2" fromLane="0" toLane="3" dir="l" state="M"/>
    <connection from=":gneJ00_13" to="gneE1" fromLane="0" toLane="3" dir="t" state="M"/>
    <connection from=":gneJ00_14" to="gneE1" fromLane="0" toLane="0" dir="r" state="M"/>
    <connection from=":gneJ00_15" to="gneE1" fromLane="0" toLane="1" dir="r" state="M"/>
    <connection from=":gneJ00_16" to="gneE0" fromLane="0" toLane="1" dir="s" state="M"/>
    <connection from=":gneJ00_16" to="gneE0" fromLane="1" toLane="2" dir="s" state="M"/>
    <connection from=":gneJ00_16" to="gneE0" fromLane="2" toLane="3" dir="s" state="M"/>
    <connection from=":gneJ00_19" to="gneE3" fromLane="0" toLane="3" dir="l" state="M"/>
    <connection from=":gneJ00_20" to="gneE2" fromLane="0" toLane="3" dir="t" state="M"/>
    <connection from=":gneJ00_21" to="gneE2" fromLane="0" toLane="0" dir="r" state="M"/>
    <connection from=":gneJ00_22" to="gneE2" fromLane="0" toLane="1" dir="r" state="M"/>
    <connection from=":gneJ00_23" to="gneE1" fromLane="0" toLane="1" dir="s" state="M"/>
    <connection from=":gneJ00_23" to="gneE1" fromLane="1" toLane="2" dir="s" state="M"/>
    <connection from=":gneJ00_23" to="gneE1" fromLane="2" toLane="3" dir="s" state="M"/>
    <connection from=":gneJ00_26" to="gneE0" fromLane="0" toLane="3" dir="l" state="M"/>
    <connection from=":gneJ00_27" to="gneE3" fromLane="0" toLane="3" dir="t" state="M"/>

</net>
